<?xml version="1.0" encoding="UTF-8"?>

<!-- generated on 2025-04-20 00:15:54.120432 by randomTrips.py v1_22_0+0002-63e50f52594
<configuration>
    <net-file value="osm.net.xml.gz"/>
    <output-trip-file value="osm.truck.trips.xml"/>
    <route-file value="osm.truck.rou.xml"/>
    <prefix value="truck"/>
    <trip-attributes value="departLane=&quot;best&quot;"/>
    <fringe-start-attributes value="departSpeed=&quot;max&quot;"/>
    <vehicle-class value="truck"/>
    <fringe-factor value="5"/>
    <vclass value="truck"/>
    <via-edge-types value="highway.motorway,highway.motorway_link,highway.trunk_link,highway.primary_link,highway.secondary_link,highway.tertiary_link"/>
    <min-distance value="600.0"/>
    <min-distance.fringe value="10.0"/>
    <remove-loops value="True"/>
    <validate value="True"/>
    <insertion-density value="9.0"/>
</configuration>
-->

<!-- generated on 2025-04-20 00:15:53 by Eclipse SUMO duarouter Version 1.22.0
<duarouterConfiguration xmlns:xsi="http://www.w3.org/2001/XMLSchema-instance" xsi:noNamespaceSchemaLocation="http://sumo.dlr.de/xsd/duarouterConfiguration.xsd">

    <input>
        <net-file value="osm.net.xml.gz"/>
        <route-files value="osm.truck.trips.xml"/>
    </input>

    <output>
        <output-file value="osm.truck.trips.xml.tmp"/>
        <alternatives-output value="NUL"/>
        <write-trips value="true"/>
    </output>

    <processing>
        <remove-loops value="true"/>
    </processing>

    <time>
        <begin value="0.0"/>
        <end value="3600.0"/>
    </time>

    <report>
        <no-warnings value="true"/>
        <ignore-errors value="true"/>
        <no-step-log value="true"/>
    </report>

</duarouterConfiguration>
-->

<routes xmlns:xsi="http://www.w3.org/2001/XMLSchema-instance" xsi:noNamespaceSchemaLocation="http://sumo.dlr.de/xsd/routes_file.xsd">
    <vType id="truck_truck" vClass="truck"/>
    <trip id="truck0" type="truck_truck" depart="0.00" departLane="best" departSpeed="max" from="28250330#0" to="-1269046125"/>
    <trip id="truck1" type="truck_truck" depart="3.44" departLane="best" from="1027257243" to="-670331704#0"/>
    <trip id="truck2" type="truck_truck" depart="6.87" departLane="best" departSpeed="max" from="28489881#0" to="28252103#2"/>
    <trip id="truck3" type="truck_truck" depart="10.31" departLane="best" departSpeed="max" from="410344191" to="28124533"/>
    <trip id="truck4" type="truck_truck" depart="13.74" departLane="best" departSpeed="max" from="-670331704#1" to="28123894#2"/>
    <trip id="truck5" type="truck_truck" depart="17.18" departLane="best" from="28250334#1" to="28124534#1"/>
    <trip id="truck6" type="truck_truck" depart="20.61" departLane="best" departSpeed="max" from="-670331704#1" to="28171709#0"/>
    <trip id="truck7" type="truck_truck" depart="24.05" departLane="best" from="389744125" to="-1035941618"/>
    <trip id="truck8" type="truck_truck" depart="27.48" departLane="best" from="-132951304#1" to="-28252103#1"/>
    <trip id="truck10" type="truck_truck" depart="34.36" departLane="best" from="406636346#1" to="-28176238#1"/>
    <trip id="truck11" type="truck_truck" depart="37.79" departLane="best" from="37985780#9" to="301866114"/>
    <trip id="truck12" type="truck_truck" depart="41.23" departLane="best" from="28124527#0" to="709003829"/>
    <trip id="truck13" type="truck_truck" depart="44.66" departLane="best" departSpeed="max" from="403459191" to="28177411#6-AddedOnRampEdge"/>
    <trip id="truck14" type="truck_truck" depart="48.10" departLane="best" from="28252118#1" to="-132951313#4"/>
    <trip id="truck16" type="truck_truck" depart="54.97" departLane="best" from="410348026#3" to="867859355"/>
    <trip id="truck17" type="truck_truck" depart="58.40" departLane="best" from="-28124549#4" to="1042329234#0"/>
    <trip id="truck18" type="truck_truck" depart="61.84" departLane="best" departSpeed="max" from="28250330#0" to="158410296#0"/>
    <trip id="truck19" type="truck_truck" depart="65.28" departLane="best" from="1021305072#1" to="709003823"/>
    <trip id="truck20" type="truck_truck" depart="68.71" departLane="best" from="176676453" to="-28176243#0"/>
    <trip id="truck21" type="truck_truck" depart="72.15" departLane="best" departSpeed="max" from="28252118#1" to="301866113"/>
    <trip id="truck22" type="truck_truck" depart="75.58" departLane="best" from="-28252103#2" to="158414301"/>
    <trip id="truck23" type="truck_truck" depart="79.02" departLane="best" from="80445170" to="28250340#0"/>
    <trip id="truck25" type="truck_truck" depart="85.89" departLane="best" departSpeed="max" from="406636346#0" to="360771864"/>
    <trip id="truck27" type="truck_truck" depart="92.76" departLane="best" from="-410359603#0" to="709003824"/>
    <trip id="truck28" type="truck_truck" depart="96.20" departLane="best" from="407031094#7" to="1191712781"/>
    <trip id="truck29" type="truck_truck" depart="99.63" departLane="best" from="410359599" to="28116049#18"/>
    <trip id="truck31" type="truck_truck" depart="106.50" departLane="best" from="28124546#1" to="1035941616"/>
    <trip id="truck32" type="truck_truck" depart="109.94" departLane="best" from="28124552#0" to="410359603#1"/>
    <trip id="truck34" type="truck_truck" depart="116.81" departLane="best" from="-28124533" to="-153457591#0"/>
    <trip id="truck35" type="truck_truck" depart="120.25" departLane="best" departSpeed="max" from="28124550#1" to="28250334#1"/>
    <trip id="truck37" type="truck_truck" depart="127.12" departLane="best" from="-158408625#0" to="158414301"/>
    <trip id="truck38" type="truck_truck" depart="130.55" departLane="best" departSpeed="max" from="867859360" to="28123906#2"/>
    <trip id="truck39" type="truck_truck" depart="133.99" departLane="best" from="722356360#5" to="410348019#3"/>
    <trip id="truck40" type="truck_truck" depart="137.42" departLane="best" from="28250350#1" to="28124527#3"/>
    <trip id="truck41" type="truck_truck" depart="140.86" departLane="best" from="1021305072#1" to="28250340#0"/>
    <trip id="truck42" type="truck_truck" depart="144.29" departLane="best" departSpeed="max" from="28124550#1" to="229021945#8"/>
    <trip id="truck43" type="truck_truck" depart="147.73" departLane="best" from="28117272#3" to="709003826"/>
    <trip id="truck44" type="truck_truck" depart="151.17" departLane="best" from="407031094#7" to="1035941616"/>
    <trip id="truck46" type="truck_truck" depart="158.04" departLane="best" from="301866514#4" to="28250340#0"/>
    <trip id="truck48" type="truck_truck" depart="164.91" departLane="best" from="301866711#4" to="28123906#4"/>
    <trip id="truck49" type="truck_truck" depart="168.34" departLane="best" departSpeed="max" from="-1035941616" to="125076885#0"/>
    <trip id="truck50" type="truck_truck" depart="171.78" departLane="best" from="407256937#0" to="406636346#3"/>
    <trip id="truck51" type="truck_truck" depart="175.21" departLane="best" departSpeed="max" from="1043108985#0" to="-158408272#2"/>
    <trip id="truck52" type="truck_truck" depart="178.65" departLane="best" from="407256937#0" to="709003824"/>
    <trip id="truck54" type="truck_truck" depart="185.52" departLane="best" from="301866515#8" to="-28176242#0"/>
    <trip id="truck57" type="truck_truck" depart="195.83" departLane="best" departSpeed="max" from="28036986" to="-410344191"/>
    <trip id="truck58" type="truck_truck" depart="199.26" departLane="best" from="28124527#4" to="301866114"/>
    <trip id="truck59" type="truck_truck" depart="202.70" departLane="best" departSpeed="max" from="867859360" to="-28250344#1"/>
    <trip id="truck60" type="truck_truck" depart="206.13" departLane="best" from="28125045#0" to="-745499160"/>
    <trip id="truck61" type="truck_truck" depart="209.57" departLane="best" from="132951298" to="410348709#0"/>
    <trip id="truck63" type="truck_truck" depart="216.44" departLane="best" departSpeed="max" from="-174468339" to="-28250335#1"/>
    <trip id="truck65" type="truck_truck" depart="223.31" departLane="best" from="406636346#5" to="-230074430"/>
    <trip id="truck67" type="truck_truck" depart="230.18" departLane="best" departSpeed="max" from="-43007533" to="-28176243#1"/>
    <trip id="truck68" type="truck_truck" depart="233.62" departLane="best" departSpeed="max" from="444938294" to="28124549#5"/>
    <trip id="truck69" type="truck_truck" depart="237.06" departLane="best" from="28118325#1" to="362658257#4"/>
    <trip id="truck70" type="truck_truck" depart="240.49" departLane="best" departSpeed="max" from="28036986" to="229021945#2"/>
    <trip id="truck71" type="truck_truck" depart="243.93" departLane="best" departSpeed="max" from="28254238#0" to="-28252102"/>
    <trip id="truck72" type="truck_truck" depart="247.36" departLane="best" departSpeed="max" from="745499160" to="-28124547"/>
    <trip id="truck73" type="truck_truck" depart="250.80" departLane="best" from="228038463" to="132951304#1"/>
    <trip id="truck74" type="truck_truck" depart="254.23" departLane="best" from="406636346#7" to="1027257243"/>
    <trip id="truck75" type="truck_truck" depart="257.67" departLane="best" departSpeed="max" from="-293075487" to="28116049#12"/>
    <trip id="truck76" type="truck_truck" depart="261.10" departLane="best" departSpeed="max" from="28036986" to="1042329234#0"/>
    <trip id="truck77" type="truck_truck" depart="264.54" departLane="best" from="28116049#2" to="410348019#3"/>
    <trip id="truck78" type="truck_truck" depart="267.98" departLane="best" departSpeed="max" from="28124535" to="-157863240#1"/>
    <trip id="truck79" type="truck_truck" depart="271.41" departLane="best" departSpeed="max" from="867859360" to="406636346#8"/>
    <trip id="truck80" type="truck_truck" depart="274.85" departLane="best" from="722356360#3-AddedOffRampEdge" to="679796177"/>
    <trip id="truck81" type="truck_truck" depart="278.28" departLane="best" from="406636346#10" to="-28252112#0"/>
    <trip id="truck82" type="truck_truck" depart="281.72" departLane="best" departSpeed="max" from="28118328" to="-410344191"/>
    <trip id="truck84" type="truck_truck" depart="288.59" departLane="best" from="176674737#0" to="722356360#3-AddedOffRampEdge"/>
    <trip id="truck86" type="truck_truck" depart="295.46" departLane="best" from="28117272#4" to="220518886#5"/>
    <trip id="truck88" type="truck_truck" depart="302.33" departLane="best" from="406636346#5" to="293075487"/>
    <trip id="truck89" type="truck_truck" depart="305.77" departLane="best" departSpeed="max" from="-28250349" to="1170476909#0"/>
    <trip id="truck90" type="truck_truck" depart="309.20" departLane="best" from="722356360#3" to="-28124552#0"/>
    <trip id="truck91" type="truck_truck" depart="312.64" departLane="best" from="28124528" to="301866515#14"/>
    <trip id="truck92" type="truck_truck" depart="316.07" departLane="best" from="153457591#0" to="28124552#1"/>
    <trip id="truck93" type="truck_truck" depart="319.51" departLane="best" departSpeed="max" from="-28250349" to="709003827"/>
    <trip id="truck94" type="truck_truck" depart="322.94" departLane="best" from="28116049#3" to="-293075488"/>
    <trip id="truck96" type="truck_truck" depart="329.82" departLane="best" departSpeed="max" from="410344191" to="1024989366"/>
    <trip id="truck97" type="truck_truck" depart="333.25" departLane="best" from="28171709#0" to="28177411#6-AddedOnRampEdge"/>
    <trip id="truck98" type="truck_truck" depart="336.69" departLane="best" departSpeed="max" from="28036986" to="28124552#1"/>
    <trip id="truck99" type="truck_truck" depart="340.12" departLane="best" from="28123901#1" to="680218140"/>
    <trip id="truck100" type="truck_truck" depart="343.56" departLane="best" from="389744125" to="28489881#3"/>
    <trip id="truck102" type="truck_truck" depart="350.43" departLane="best" from="28250345#0" to="1175300515#0"/>
    <trip id="truck103" type="truck_truck" depart="353.86" departLane="best" from="1170476909#0" to="301866515#29"/>
    <trip id="truck104" type="truck_truck" depart="357.30" departLane="best" from="-176674737#1" to="28116049#18"/>
    <trip id="truck105" type="truck_truck" depart="360.74" departLane="best" departSpeed="max" from="867859360" to="80446446"/>
    <trip id="truck107" type="truck_truck" depart="367.61" departLane="best" from="407256937#13" to="410359600"/>
    <trip id="truck108" type="truck_truck" depart="371.04" departLane="best" from="158410296#4" to="-28252103#3"/>
    <trip id="truck109" type="truck_truck" depart="374.48" departLane="best" from="28250335#2" to="1035941619#0"/>
    <trip id="truck110" type="truck_truck" depart="377.91" departLane="best" from="28250341#1" to="709003823"/>
    <trip id="truck111" type="truck_truck" depart="381.35" departLane="best" from="-28250337#1" to="28124551#1"/>
    <trip id="truck112" type="truck_truck" depart="384.79" departLane="best" departSpeed="max" from="28124550#1" to="28124546#0"/>
    <trip id="truck113" type="truck_truck" depart="388.22" departLane="best" from="1024989366" to="-28176238#2"/>
    <trip id="truck114" type="truck_truck" depart="391.66" departLane="best" departSpeed="max" from="28253275" to="-403459191"/>
    <trip id="truck115" type="truck_truck" depart="395.09" departLane="best" departSpeed="max" from="28177412#0" to="1035941616"/>
    <trip id="truck116" type="truck_truck" depart="398.53" departLane="best" departSpeed="max" from="28118328" to="43007533"/>
    <trip id="truck118" type="truck_truck" depart="405.40" departLane="best" departSpeed="max" from="28036986" to="1035941619#1"/>
    <trip id="truck119" type="truck_truck" depart="408.83" departLane="best" departSpeed="max" from="28250330#0" to="1035941616"/>
    <trip id="truck120" type="truck_truck" depart="412.27" departLane="best" from="28490019" to="28124536#2"/>
    <trip id="truck122" type="truck_truck" depart="419.14" departLane="best" from="410348026#1" to="28124534#3"/>
    <trip id="truck123" type="truck_truck" depart="422.58" departLane="best" from="406636346#19" to="28124552#1"/>
    <trip id="truck124" type="truck_truck" depart="426.01" departLane="best" departSpeed="max" from="1043108985#0" to="410359603#1"/>
    <trip id="truck125" type="truck_truck" depart="429.45" departLane="best" from="410348019#4" to="-404462142"/>
    <trip id="truck126" type="truck_truck" depart="432.88" departLane="best" departSpeed="max" from="-709003827" to="-28124549#3"/>
    <trip id="truck127" type="truck_truck" depart="436.32" departLane="best" from="28117272#2" to="28250332#0"/>
    <trip id="truck128" type="truck_truck" depart="439.75" departLane="best" departSpeed="max" from="-28250349" to="679796177"/>
    <trip id="truck131" type="truck_truck" depart="450.06" departLane="best" from="132951280#3" to="679796177"/>
    <trip id="truck132" type="truck_truck" depart="453.50" departLane="best" from="37985780#14" to="410348020-AddedOffRampEdge"/>
    <trip id="truck134" type="truck_truck" depart="460.37" departLane="best" from="407031094#11" to="410348019#1"/>
    <trip id="truck135" type="truck_truck" depart="463.80" departLane="best" departSpeed="max" from="-670331704#1" to="403507769#1"/>
    <trip id="truck136" type="truck_truck" depart="467.24" departLane="best" departSpeed="max" from="28118323#0" to="1190779531"/>
    <trip id="truck137" type="truck_truck" depart="470.67" departLane="best" from="37974048#3" to="-745499160"/>
    <trip id="truck139" type="truck_truck" depart="477.55" departLane="best" from="1285895522#0" to="410348020-AddedOffRampEdge"/>
    <trip id="truck140" type="truck_truck" depart="480.98" departLane="best" from="722356360#0" to="1042329234#2"/>
    <trip id="truck141" type="truck_truck" depart="484.42" departLane="best" departSpeed="max" from="740005657" to="28124527#3"/>
    <trip id="truck142" type="truck_truck" depart="487.85" departLane="best" departSpeed="max" from="444938294" to="28124551#0"/>
    <trip id="truck143" type="truck_truck" depart="491.29" departLane="best" from="722356360#5" to="-28489881#1"/>
    <trip id="truck144" type="truck_truck" depart="494.72" departLane="best" departSpeed="max" from="685838683" to="1035941617#1"/>
    <trip id="truck145" type="truck_truck" depart="498.16" departLane="best" departSpeed="max" from="28124550#1" to="229021945#8"/>
    <trip id="truck148" type="truck_truck" depart="508.47" departLane="best" from="176953368#0" to="28124551#0"/>
    <trip id="truck149" type="truck_truck" depart="511.90" departLane="best" departSpeed="max" from="-709003828" to="28254227#1"/>
    <trip id="truck150" type="truck_truck" depart="515.34" departLane="best" departSpeed="max" from="-1035941616" to="670331704#1"/>
    <trip id="truck151" type="truck_truck" depart="518.77" departLane="best" from="28124527#3" to="293075487"/>
    <trip id="truck152" type="truck_truck" depart="522.21" departLane="best" from="28490019" to="28250349"/>
    <trip id="truck153" type="truck_truck" depart="525.64" departLane="best" from="158408625#1" to="-228038463"/>
    <trip id="truck154" type="truck_truck" depart="529.08" departLane="best" from="28250341#1" to="125076885#2"/>
    <trip id="truck155" type="truck_truck" depart="532.51" departLane="best" from="1043471254" to="407256937#13"/>
    <trip id="truck156" type="truck_truck" depart="535.95" departLane="best" from="37985780#12" to="1175300515#0"/>
    <trip id="truck157" type="truck_truck" depart="539.39" departLane="best" departSpeed="max" from="1043108985#0" to="177368658#6"/>
    <trip id="truck158" type="truck_truck" depart="542.82" departLane="best" from="228038463" to="1091867612#0"/>
    <trip id="truck159" type="truck_truck" depart="546.26" departLane="best" from="28176243#0" to="220518886#5"/>
    <trip id="truck160" type="truck_truck" depart="549.69" departLane="best" departSpeed="max" from="463174769#0" to="28252103#2"/>
    <trip id="truck161" type="truck_truck" depart="553.13" departLane="best" from="1024989365" to="28177411#4"/>
    <trip id="truck162" type="truck_truck" depart="556.56" departLane="best" from="1042329236#2" to="28124534#6"/>
    <trip id="truck163" type="truck_truck" depart="560.00" departLane="best" departSpeed="max" from="280670457#0" to="28124552#1"/>
    <trip id="truck164" type="truck_truck" depart="563.44" departLane="best" from="28250337#0" to="158410303#1"/>
    <trip id="truck166" type="truck_truck" depart="570.31" departLane="best" from="28118325#1" to="28176232"/>
    <trip id="truck167" type="truck_truck" depart="573.74" departLane="best" from="37974048#4" to="-28252112#2"/>
    <trip id="truck168" type="truck_truck" depart="577.18" departLane="best" from="-28123901#3" to="28123897#4"/>
    <trip id="truck169" type="truck_truck" depart="580.61" departLane="best" departSpeed="max" from="28177412#0" to="132951280#3"/>
    <trip id="truck170" type="truck_truck" depart="584.05" departLane="best" from="403283473#0" to="301866515#29"/>
    <trip id="truck171" type="truck_truck" depart="587.48" departLane="best" departSpeed="max" from="-360771864" to="-1269046125"/>
    <trip id="truck172" type="truck_truck" depart="590.92" departLane="best" from="406636346#12" to="-230074430"/>
    <trip id="truck173" type="truck_truck" depart="594.36" departLane="best" departSpeed="max" from="230074430" to="-28250335#0"/>
    <trip id="truck174" type="truck_truck" depart="597.79" departLane="best" departSpeed="max" from="-293075487" to="28253276#2"/>
    <trip id="truck175" type="truck_truck" depart="601.23" departLane="best" from="28250337#1" to="-1035941618"/>
    <trip id="truck176" type="truck_truck" depart="604.66" departLane="best" from="301866391#1" to="360382109"/>
    <trip id="truck177" type="truck_truck" depart="608.10" departLane="best" departSpeed="max" from="-28124549#5" to="228038463"/>
    <trip id="truck178" type="truck_truck" depart="611.53" departLane="best" departSpeed="max" from="28252118#1" to="709003826"/>
    <trip id="truck179" type="truck_truck" depart="614.97" departLane="best" from="28250341#4" to="722356362#0"/>
    <trip id="truck180" type="truck_truck" depart="618.40" departLane="best" from="28171709#0" to="709003825"/>
    <trip id="truck181" type="truck_truck" depart="621.84" departLane="best" from="37985780#12" to="28123894#14"/>
    <trip id="truck182" type="truck_truck" depart="625.28" departLane="best" from="403507768" to="28124534#6"/>
    <trip id="truck183" type="truck_truck" depart="628.71" departLane="best" from="410348019#2" to="301866514#4"/>
    <trip id="truck185" type="truck_truck" depart="635.58" departLane="best" departSpeed="max" from="-709003827" to="28250340#0"/>
    <trip id="truck186" type="truck_truck" depart="639.02" departLane="best" from="301866515#8" to="28123901#2"/>
    <trip id="truck187" type="truck_truck" depart="642.45" departLane="best" from="28177411#5" to="1035941619#1"/>
    <trip id="truck188" type="truck_truck" depart="645.89" departLane="best" from="1024989365" to="1228685825"/>
    <trip id="truck189" type="truck_truck" depart="649.32" departLane="best" from="28124527#6" to="28250337#2"/>
    <trip id="truck191" type="truck_truck" depart="656.20" departLane="best" departSpeed="max" from="28253273#0" to="-176674737#2"/>
    <trip id="truck192" type="truck_truck" depart="659.63" departLane="best" from="410359597" to="28124533"/>
    <trip id="truck193" type="truck_truck" depart="663.07" departLane="best" departSpeed="max" from="230074430" to="-403459191"/>
    <trip id="truck194" type="truck_truck" depart="666.50" departLane="best" departSpeed="max" from="28036986" to="43007533"/>
    <trip id="truck195" type="truck_truck" depart="669.94" departLane="best" from="28124551#1" to="28253276#1"/>
    <trip id="truck196" type="truck_truck" depart="673.37" departLane="best" from="406636346#20" to="301866711#3"/>
    <trip id="truck197" type="truck_truck" depart="676.81" departLane="best" from="176674737#1" to="-1035941618"/>
    <trip id="truck199" type="truck_truck" depart="683.68" departLane="best" from="406636346#18" to="709003826"/>
    <trip id="truck200" type="truck_truck" depart="687.12" departLane="best" departSpeed="max" from="28036986" to="301866515#14"/>
    <trip id="truck201" type="truck_truck" depart="690.55" departLane="best" from="28124534#1" to="-28176238#0"/>
    <trip id="truck204" type="truck_truck" depart="700.86" departLane="best" from="28117272#4" to="-28252112#0"/>
    <trip id="truck205" type="truck_truck" depart="704.29" departLane="best" departSpeed="max" from="28118325#0" to="-28176238#2"/>
    <trip id="truck206" type="truck_truck" depart="707.73" departLane="best" from="28177411#1" to="-1269046125"/>
    <trip id="truck207" type="truck_truck" depart="711.17" departLane="best" from="196800032#1" to="28124548#4"/>
    <trip id="truck208" type="truck_truck" depart="714.60" departLane="best" departSpeed="max" from="-1190779531" to="28250341#1"/>
    <trip id="truck209" type="truck_truck" depart="718.04" departLane="best" from="-28250344#0" to="28116049#2"/>
    <trip id="truck210" type="truck_truck" depart="721.47" departLane="best" from="-132951310#0" to="158414301"/>
    <trip id="truck211" type="truck_truck" depart="724.91" departLane="best" departSpeed="max" from="-43007533" to="125076885#2"/>
    <trip id="truck212" type="truck_truck" depart="728.34" departLane="best" from="301866515#20" to="158414301"/>
    <trip id="truck213" type="truck_truck" depart="731.78" departLane="best" from="301866391#2" to="406636346#3"/>
    <trip id="truck214" type="truck_truck" depart="735.21" departLane="best" from="-1091867612#1" to="28124527#6"/>
    <trip id="truck215" type="truck_truck" depart="738.65" departLane="best" departSpeed="max" from="867859360" to="153815376"/>
    <trip id="truck216" type="truck_truck" depart="742.09" departLane="best" from="28250334#2" to="362658257#1"/>
    <trip id="truck217" type="truck_truck" depart="745.52" departLane="best" from="28250335#0" to="301866515#29"/>
    <trip id="truck218" type="truck_truck" depart="748.96" departLane="best" departSpeed="max" from="631123362#0" to="-391085864"/>
    <trip id="truck221" type="truck_truck" depart="759.26" departLane="best" departSpeed="max" from="28252118#0" to="410348019#0"/>
    <trip id="truck222" type="truck_truck" depart="762.70" departLane="best" from="410359599" to="28124551#0"/>
    <trip id="truck223" type="truck_truck" depart="766.13" departLane="best" from="403283473#1" to="709003828"/>
    <trip id="truck224" type="truck_truck" depart="769.57" departLane="best" departSpeed="max" from="28124550#1" to="-1269046125"/>
    <trip id="truck226" type="truck_truck" depart="776.44" departLane="best" departSpeed="max" from="28253275" to="-230074430"/>
    <trip id="truck227" type="truck_truck" depart="779.88" departLane="best" departSpeed="max" from="-28124549#5" to="360771864"/>
    <trip id="truck228" type="truck_truck" depart="783.31" departLane="best" from="406636346#13" to="28176235#3"/>
    <trip id="truck230" type="truck_truck" depart="790.18" departLane="best" departSpeed="max" from="280670457#0" to="158410303#1"/>
    <trip id="truck231" type="truck_truck" depart="793.62" departLane="best" from="28123893#4" to="132951310#1"/>
    <trip id="truck232" type="truck_truck" depart="797.05" departLane="best" departSpeed="max" from="-28124549#5" to="709003827"/>
    <trip id="truck233" type="truck_truck" depart="800.49" departLane="best" departSpeed="max" from="28250330#0" to="406636346#2"/>
    <trip id="truck234" type="truck_truck" depart="803.93" departLane="best" departSpeed="max" from="28253273#0" to="229024626"/>
    <trip id="truck235" type="truck_truck" depart="807.36" departLane="best" departSpeed="max" from="28254238#0" to="709003828"/>
    <trip id="truck236" type="truck_truck" depart="810.80" departLane="best" from="1024989362#0-AddedOnRampEdge" to="403283473#1"/>
    <trip id="truck237" type="truck_truck" depart="814.23" departLane="best" from="28124527#3" to="410359601#24"/>
    <trip id="truck239" type="truck_truck" depart="821.10" departLane="best" from="1021305072#1-AddedOnRampEdge" to="407256937#2"/>
    <trip id="truck240" type="truck_truck" depart="824.54" departLane="best" from="403507768" to="28124530"/>
    <trip id="truck241" type="truck_truck" depart="827.97" departLane="best" from="407256937#15" to="1024989364"/>
    <trip id="truck242" type="truck_truck" depart="831.41" departLane="best" from="28118323#4" to="28177411#0"/>
    <trip id="truck243" type="truck_truck" depart="834.85" departLane="best" from="176674737#0" to="-1269046125"/>
    <trip id="truck244" type="truck_truck" depart="838.28" departLane="best" from="406636346#13" to="-28489881#1"/>
    <trip id="truck245" type="truck_truck" depart="841.72" departLane="best" departSpeed="max" from="-43007533" to="229021945#0"/>
    <trip id="truck246" type="truck_truck" depart="845.15" departLane="best" from="-132951304#1" to="410359601#13"/>
    <trip id="truck247" type="truck_truck" depart="848.59" departLane="best" departSpeed="max" from="28252118#0" to="1035941619#1"/>
    <trip id="truck248" type="truck_truck" depart="852.02" departLane="best" departSpeed="max" from="-1035941617#1" to="709003825"/>
    <trip id="truck249" type="truck_truck" depart="855.46" departLane="best" from="-28123901#4" to="293075487"/>
    <trip id="truck250" type="truck_truck" depart="858.90" departLane="best" departSpeed="max" from="28118328" to="301866515#5"/>
    <trip id="truck251" type="truck_truck" depart="862.33" departLane="best" from="28252111#1" to="28250341#4"/>
    <trip id="truck254" type="truck_truck" depart="872.64" departLane="best" departSpeed="max" from="28252112#0" to="1190779531"/>
    <trip id="truck255" type="truck_truck" depart="876.07" departLane="best" from="28124550#1" to="28118323#8"/>
    <trip id="truck256" type="truck_truck" depart="879.51" departLane="best" from="28123906#2" to="228038463"/>
    <trip id="truck257" type="truck_truck" depart="882.94" departLane="best" departSpeed="max" from="293075488" to="1285895521"/>
    <trip id="truck258" type="truck_truck" depart="886.38" departLane="best" departSpeed="max" from="28252118#0" to="1035941619#0"/>
    <trip id="truck259" type="truck_truck" depart="889.82" departLane="best" departSpeed="max" from="-709003828" to="-28125035"/>
    <trip id="truck260" type="truck_truck" depart="893.25" departLane="best" departSpeed="max" from="-293075487" to="-28125035"/>
    <trip id="truck261" type="truck_truck" depart="896.69" departLane="best" from="28124527#0" to="301866698#1"/>
    <trip id="truck262" type="truck_truck" depart="900.12" departLane="best" from="28118326#8" to="301866113"/>
    <trip id="truck263" type="truck_truck" depart="903.56" departLane="best" from="722356362#2-AddedOnRampEdge" to="28123901#5"/>
    <trip id="truck264" type="truck_truck" depart="906.99" departLane="best" from="1027257253#0-AddedOffRampEdge" to="-28124549#0"/>
    <trip id="truck265" type="truck_truck" depart="910.43" departLane="best" departSpeed="max" from="-293075487" to="-745499160"/>
    <trip id="truck266" type="truck_truck" depart="913.86" departLane="best" from="28123909#0" to="1035941619#1"/>
    <trip id="truck267" type="truck_truck" depart="917.30" departLane="best" from="722356362#1" to="28124546#0"/>
    <trip id="truck268" type="truck_truck" depart="920.74" departLane="best" from="28252112#1" to="28176238#1"/>
    <trip id="truck269" type="truck_truck" depart="924.17" departLane="best" departSpeed="max" from="407031094#0" to="28118567#0"/>
    <trip id="truck270" type="truck_truck" depart="927.61" departLane="best" from="407031094#14" to="28124549#5"/>
    <trip id="truck271" type="truck_truck" depart="931.04" departLane="best" departSpeed="max" from="28118325#0" to="229024626"/>
    <trip id="truck272" type="truck_truck" depart="934.48" departLane="best" from="28489881#2" to="-157863240#1"/>
    <trip id="truck273" type="truck_truck" depart="937.91" departLane="best" departSpeed="max" from="463174769#0" to="28118325#5"/>