<?xml version="1.0" encoding="UTF-8"?>

<!-- generated on 2025-04-21 22:49:30.594862 by osmWebWizard.py v1_22_0+0002-63e50f52594
<configuration>
    <net-file value="C:\Users\micha\Sumo\2025-04-21-22-49-18\osm.net.xml.gz"/>
    <output-trip-file value="C:\Users\micha\Sumo\2025-04-21-22-49-18\osm.truck.trips.xml"/>
    <route-file value="C:\Users\micha\Sumo\2025-04-21-22-49-18\osm.truck.rou.xml"/>
    <prefix value="truck"/>
    <trip-attributes value="departLane=&quot;best&quot;"/>
    <fringe-start-attributes value="departSpeed=&quot;max&quot;"/>
    <vehicle-class value="truck"/>
    <fringe-factor value="8"/>
    <vclass value="truck"/>
    <via-edge-types value="highway.motorway,highway.motorway_link,highway.trunk_link,highway.primary_link,highway.secondary_link,highway.tertiary_link"/>
    <min-distance value="600.0"/>
    <min-distance.fringe value="10.0"/>
    <remove-loops value="True"/>
    <validate value="True"/>
    <insertion-density value="8.0"/>
</configuration>
-->

<!-- generated on 2025-04-21 22:49:30 by Eclipse SUMO duarouter Version 1.22.0
<duarouterConfiguration xmlns:xsi="http://www.w3.org/2001/XMLSchema-instance" xsi:noNamespaceSchemaLocation="http://sumo.dlr.de/xsd/duarouterConfiguration.xsd">

    <input>
        <net-file value="C:\Users\micha\Sumo\2025-04-21-22-49-18\osm.net.xml.gz"/>
        <route-files value="C:\Users\micha\Sumo\2025-04-21-22-49-18\osm.truck.trips.xml"/>
    </input>

    <output>
        <output-file value="C:\Users\micha\Sumo\2025-04-21-22-49-18\osm.truck.trips.xml.tmp"/>
        <alternatives-output value="NUL"/>
        <write-trips value="true"/>
    </output>

    <processing>
        <remove-loops value="true"/>
    </processing>

    <time>
        <begin value="0.0"/>
        <end value="3600.0"/>
    </time>

    <report>
        <no-warnings value="true"/>
        <ignore-errors value="true"/>
        <no-step-log value="true"/>
    </report>

</duarouterConfiguration>
-->

<routes xmlns:xsi="http://www.w3.org/2001/XMLSchema-instance" xsi:noNamespaceSchemaLocation="http://sumo.dlr.de/xsd/routes_file.xsd">
    <vType id="truck_truck" vClass="truck"/>
    <trip id="truck0" type="truck_truck" depart="0.00" departLane="best" departSpeed="max" from="1005428374" to="-403276589#1"/>
    <trip id="truck1" type="truck_truck" depart="2.43" departLane="best" from="28129403#9" to="28129389#8"/>
    <trip id="truck2" type="truck_truck" depart="4.85" departLane="best" departSpeed="max" from="-504070086" to="28115472#8"/>
    <trip id="truck3" type="truck_truck" depart="7.28" departLane="best" from="-157863240#2" to="-28129433#0"/>
    <trip id="truck4" type="truck_truck" depart="9.70" departLane="best" from="28126515#0" to="28116033#0"/>
    <trip id="truck5" type="truck_truck" depart="12.13" departLane="best" departSpeed="max" from="-504070086" to="28118333"/>
    <trip id="truck6" type="truck_truck" depart="14.56" departLane="best" from="403276587#2" to="-1213283904"/>
    <trip id="truck7" type="truck_truck" depart="16.98" departLane="best" from="401267514" to="28129399#5"/>
    <trip id="truck8" type="truck_truck" depart="19.41" departLane="best" from="557152286#1" to="158729716#14"/>
    <trip id="truck9" type="truck_truck" depart="21.84" departLane="best" departSpeed="max" from="404462145#0" to="28123897#4"/>
    <trip id="truck11" type="truck_truck" depart="26.69" departLane="best" from="28116023#2" to="709003831"/>
    <trip id="truck12" type="truck_truck" depart="29.11" departLane="best" from="229024195#3" to="28116040#0"/>
    <trip id="truck13" type="truck_truck" depart="31.54" departLane="best" from="403393361#10" to="28125042#1"/>
    <trip id="truck14" type="truck_truck" depart="33.97" departLane="best" from="406786260#0" to="28116410#2"/>
    <trip id="truck15" type="truck_truck" depart="36.39" departLane="best" from="28129394#1" to="-28107242#0"/>
    <trip id="truck16" type="truck_truck" depart="38.82" departLane="best" from="-529702625#0" to="1043108985#6"/>
    <trip id="truck17" type="truck_truck" depart="41.24" departLane="best" from="-28116037#1" to="1027257250"/>
    <trip id="truck18" type="truck_truck" depart="43.67" departLane="best" from="229023998#1" to="-28129445#2"/>
    <trip id="truck19" type="truck_truck" depart="46.10" departLane="best" departSpeed="max" from="-901206072#1" to="670794034"/>
    <trip id="truck20" type="truck_truck" depart="48.52" departLane="best" from="28126513#5" to="-28125034#7"/>
    <trip id="truck21" type="truck_truck" depart="50.95" departLane="best" from="-28129403#9" to="28129426#3"/>
    <trip id="truck22" type="truck_truck" depart="53.38" departLane="best" from="-28129401#12" to="229024196#10"/>
    <trip id="truck23" type="truck_truck" depart="55.80" departLane="best" from="722356362#0" to="28126515#2"/>
    <trip id="truck24" type="truck_truck" depart="58.23" departLane="best" from="28116042#0" to="-28129392#0"/>
    <trip id="truck25" type="truck_truck" depart="60.65" departLane="best" from="403516276#6" to="37976807#10"/>
    <trip id="truck26" type="truck_truck" depart="63.08" departLane="best" from="661591951" to="204019779"/>
    <trip id="truck27" type="truck_truck" depart="65.51" departLane="best" departSpeed="max" from="1271487156" to="-80677003#3"/>
    <trip id="truck28" type="truck_truck" depart="67.93" departLane="best" from="-405026172#2" to="676603221#12"/>
    <trip id="truck29" type="truck_truck" depart="70.36" departLane="best" departSpeed="max" from="406854415#0" to="1285895522#2"/>
    <trip id="truck30" type="truck_truck" depart="72.78" departLane="best" from="28126525#0" to="254685049#2"/>
    <trip id="truck31" type="truck_truck" depart="75.21" departLane="best" from="410348026#2" to="28112179#4"/>
    <trip id="truck32" type="truck_truck" depart="77.64" departLane="best" departSpeed="max" from="-901206072#1" to="-510525361#1"/>
    <trip id="truck33" type="truck_truck" depart="80.06" departLane="best" from="28116043#1" to="-712330707#2"/>
    <trip id="truck35" type="truck_truck" depart="84.92" departLane="best" from="867859355" to="28115475#2"/>
    <trip id="truck36" type="truck_truck" depart="87.34" departLane="best" from="28123890#2" to="28125051"/>
    <trip id="truck37" type="truck_truck" depart="89.77" departLane="best" from="309750342#5" to="28106441#3"/>
    <trip id="truck38" type="truck_truck" depart="92.19" departLane="best" departSpeed="max" from="-28108370#2" to="229024196#6"/>
    <trip id="truck39" type="truck_truck" depart="94.62" departLane="best" from="80677003#1" to="28115488#10"/>
    <trip id="truck40" type="truck_truck" depart="97.05" departLane="best" departSpeed="max" from="677721625" to="407031094#8"/>
    <trip id="truck41" type="truck_truck" depart="99.47" departLane="best" departSpeed="max" from="-1270184225" to="28129412#6"/>
    <trip id="truck42" type="truck_truck" depart="101.90" departLane="best" departSpeed="max" from="28129384#0" to="28116023#1"/>
    <trip id="truck43" type="truck_truck" depart="104.32" departLane="best" departSpeed="max" from="-901206072#1" to="28126515#5"/>
    <trip id="truck44" type="truck_truck" depart="106.75" departLane="best" from="28112651#1" to="28107508"/>
    <trip id="truck45" type="truck_truck" depart="109.18" departLane="best" from="28112179#6" to="681450585"/>
    <trip id="truck46" type="truck_truck" depart="111.60" departLane="best" departSpeed="max" from="406854415#0" to="-712330707#3"/>
    <trip id="truck47" type="truck_truck" depart="114.03" departLane="best" departSpeed="max" from="28115475#0" to="28129397#3"/>
    <trip id="truck48" type="truck_truck" depart="116.46" departLane="best" departSpeed="max" from="1213283904" to="28126515#0"/>
    <trip id="truck49" type="truck_truck" depart="118.88" departLane="best" from="28123894#8" to="-28129385#0"/>
    <trip id="truck50" type="truck_truck" depart="121.31" departLane="best" from="28129434#5" to="28116027#0"/>
    <trip id="truck51" type="truck_truck" depart="123.73" departLane="best" from="-1189349867#1" to="1346327596"/>
    <trip id="truck52" type="truck_truck" depart="126.16" departLane="best" from="-1285895521" to="529702624#0"/>
    <trip id="truck53" type="truck_truck" depart="128.59" departLane="best" from="407031093#10" to="406660680"/>
    <trip id="truck54" type="truck_truck" depart="131.01" departLane="best" from="125076885#1" to="28108367#3"/>
    <trip id="truck55" type="truck_truck" depart="133.44" departLane="best" from="28112179#8" to="676603221#5"/>
    <trip id="truck56" type="truck_truck" depart="135.86" departLane="best" from="-28115482#0" to="28112854#3"/>
    <trip id="truck57" type="truck_truck" depart="138.29" departLane="best" from="-28112652#0" to="28135835#1"/>
    <trip id="truck58" type="truck_truck" depart="140.72" departLane="best" from="28129438#4" to="-28125035"/>
    <trip id="truck59" type="truck_truck" depart="143.14" departLane="best" departSpeed="max" from="-901206072#1" to="408407597#2"/>
    <trip id="truck60" type="truck_truck" depart="145.57" departLane="best" from="28106441#5" to="-28135829"/>
    <trip id="truck61" type="truck_truck" depart="147.99" departLane="best" from="28116027#2" to="28129426#5"/>
    <trip id="truck62" type="truck_truck" depart="150.42" departLane="best" from="-391051537" to="1270184234"/>
    <trip id="truck63" type="truck_truck" depart="152.85" departLane="best" from="80445170" to="28126528#3"/>
    <trip id="truck64" type="truck_truck" depart="155.27" departLane="best" from="-28107510#3" to="28115477#7"/>
    <trip id="truck65" type="truck_truck" depart="157.70" departLane="best" departSpeed="max" from="-28125036#1" to="-403276590#2"/>
    <trip id="truck66" type="truck_truck" depart="160.13" departLane="best" from="158414301#3" to="28118333"/>
    <trip id="truck67" type="truck_truck" depart="162.55" departLane="best" from="-677721627" to="-309750339"/>
    <trip id="truck68" type="truck_truck" depart="164.98" departLane="best" from="-28112653#1" to="28125053#2"/>
    <trip id="truck69" type="truck_truck" depart="167.40" departLane="best" from="661591951" to="413958888#1"/>
    <trip id="truck70" type="truck_truck" depart="169.83" departLane="best" from="406662786#0" to="-28115473#4"/>
    <trip id="truck71" type="truck_truck" depart="172.26" departLane="best" departSpeed="max" from="-709003824" to="-28129384#1"/>
    <trip id="truck72" type="truck_truck" depart="174.68" departLane="best" from="407986582#2" to="-28125042#0"/>
    <trip id="truck73" type="truck_truck" depart="177.11" departLane="best" from="413958887#2" to="28116401#1"/>
    <trip id="truck74" type="truck_truck" depart="179.53" departLane="best" from="403271682" to="28129418#4"/>
    <trip id="truck75" type="truck_truck" depart="181.96" departLane="best" from="-28116031#1" to="28107506#1"/>
    <trip id="truck76" type="truck_truck" depart="184.39" departLane="best" from="28106441#6" to="28112181#10"/>
    <trip id="truck77" type="truck_truck" depart="186.81" departLane="best" from="28129401#9" to="28129389#0"/>
    <trip id="truck78" type="truck_truck" depart="189.24" departLane="best" from="711870074#0" to="-28116031#0"/>
    <trip id="truck79" type="truck_truck" depart="191.67" departLane="best" departSpeed="max" from="28026074#0" to="158729716#5"/>
    <trip id="truck80" type="truck_truck" depart="194.09" departLane="best" from="406786260#0" to="-527641072#2"/>
    <trip id="truck81" type="truck_truck" depart="196.52" departLane="best" departSpeed="max" from="-28135835#3" to="28108369#0"/>
    <trip id="truck82" type="truck_truck" depart="198.94" departLane="best" from="28106441#2" to="1027257253#1"/>
    <trip id="truck83" type="truck_truck" depart="201.37" departLane="best" departSpeed="max" from="-709003831" to="504070088"/>
    <trip id="truck84" type="truck_truck" depart="203.80" departLane="best" from="28108365#2" to="407031094#9"/>
    <trip id="truck85" type="truck_truck" depart="206.22" departLane="best" from="28116037#1" to="28107506#0"/>
    <trip id="truck86" type="truck_truck" depart="208.65" departLane="best" from="-901206073#1" to="406786260#5"/>
    <trip id="truck87" type="truck_truck" depart="211.07" departLane="best" departSpeed="max" from="677721625" to="527641072#1"/>
    <trip id="truck88" type="truck_truck" depart="213.50" departLane="best" from="404462145#2" to="-28129390#8"/>
    <trip id="truck89" type="truck_truck" depart="215.93" departLane="best" departSpeed="max" from="28026074#0" to="-28108368"/>
    <trip id="truck90" type="truck_truck" depart="218.35" departLane="best" from="229024195#4" to="743107422"/>
    <trip id="truck91" type="truck_truck" depart="220.78" departLane="best" departSpeed="max" from="-901206072#1" to="403271675#0"/>
    <trip id="truck92" type="truck_truck" depart="223.21" departLane="best" from="28112180#1" to="28106441#5"/>
    <trip id="truck94" type="truck_truck" depart="228.06" departLane="best" from="-28129393#2" to="1221473385#4"/>
    <trip id="truck95" type="truck_truck" depart="230.48" departLane="best" from="677721622" to="28118325#1"/>
    <trip id="truck96" type="truck_truck" depart="232.91" departLane="best" from="28116031#0" to="28129445#2"/>
    <trip id="truck97" type="truck_truck" depart="235.34" departLane="best" from="-28108365#2" to="28118326#3"/>
    <trip id="truck98" type="truck_truck" depart="237.76" departLane="best" departSpeed="max" from="28115475#0" to="408407597#5"/>
    <trip id="truck99" type="truck_truck" depart="240.19" departLane="best" from="-28129394#0" to="709003824"/>
    <trip id="truck100" type="truck_truck" depart="242.61" departLane="best" from="203541744#5" to="-28129403#4"/>
    <trip id="truck102" type="truck_truck" depart="247.47" departLane="best" departSpeed="max" from="-709003823" to="-28125033#0"/>
    <trip id="truck103" type="truck_truck" depart="249.89" departLane="best" from="407722419" to="-510525361#0"/>
    <trip id="truck104" type="truck_truck" depart="252.32" departLane="best" from="28106438#1" to="28118326#2"/>
    <trip id="truck105" type="truck_truck" depart="254.75" departLane="best" departSpeed="max" from="28115484" to="631123363"/>
    <trip id="truck106" type="truck_truck" depart="257.17" departLane="best" from="-403276590#1" to="-28129403#6"/>
    <trip id="truck107" type="truck_truck" depart="259.60" departLane="best" departSpeed="max" from="-709003824" to="254685049#3"/>
    <trip id="truck108" type="truck_truck" depart="262.02" departLane="best" from="28126535#6" to="-125076885#3"/>
    <trip id="truck109" type="truck_truck" depart="264.45" departLane="best" departSpeed="max" from="1271487156" to="28131232#6"/>
    <trip id="truck110" type="truck_truck" depart="266.88" departLane="best" departSpeed="max" from="-28113262" to="-28135829"/>
    <trip id="truck111" type="truck_truck" depart="269.30" departLane="best" departSpeed="max" from="-901206072#1" to="559801745#3"/>
    <trip id="truck112" type="truck_truck" depart="271.73" departLane="best" from="407031093#7" to="408407604#5"/>
    <trip id="truck113" type="truck_truck" depart="274.15" departLane="best" from="229023998#0" to="-28129388#0"/>
    <trip id="truck114" type="truck_truck" depart="276.58" departLane="best" from="403516274#0" to="28129400#6"/>
    <trip id="truck115" type="truck_truck" depart="279.01" departLane="best" from="28123899#2" to="743107422"/>
    <trip id="truck116" type="truck_truck" depart="281.43" departLane="best" from="28126521#0" to="-1213283904"/>
    <trip id="truck117" type="truck_truck" depart="283.86" departLane="best" from="403292593#3" to="-125076885#2"/>
    <trip id="truck118" type="truck_truck" depart="286.29" departLane="best" from="28126530#2" to="670794034"/>
    <trip id="truck119" type="truck_truck" depart="288.71" departLane="best" departSpeed="max" from="1005428374" to="28123899#2"/>
    <trip id="truck120" type="truck_truck" depart="291.14" departLane="best" from="28129399#7" to="-28129434#6"/>
    <trip id="truck121" type="truck_truck" depart="293.56" departLane="best" from="28125045#6" to="-712349117#1"/>
    <trip id="truck122" type="truck_truck" depart="295.99" departLane="best" from="28115472#14" to="413958888#1"/>
    <trip id="truck123" type="truck_truck" depart="298.42" departLane="best" from="28106441#6" to="1027257247"/>
    <trip id="truck124" type="truck_truck" depart="300.84" departLane="best" from="-125076885#1" to="359889899#7"/>
    <trip id="truck125" type="truck_truck" depart="303.27" departLane="best" departSpeed="max" from="28125050" to="-712330707#0"/>
    <trip id="truck126" type="truck_truck" depart="305.69" departLane="best" from="28129415#1" to="-28116038"/>
    <trip id="truck127" type="truck_truck" depart="308.12" departLane="best" departSpeed="max" from="28107250#0" to="-124950613#1"/>
    <trip id="truck128" type="truck_truck" depart="310.55" departLane="best" departSpeed="max" from="-28113262" to="408407611#5"/>
    <trip id="truck129" type="truck_truck" depart="312.97" departLane="best" from="403516274#2" to="28118325#9"/>
    <trip id="truck130" type="truck_truck" depart="315.40" departLane="best" from="-28129389#7" to="-28125035"/>
    <trip id="truck132" type="truck_truck" depart="320.25" departLane="best" from="359889899#3" to="407031094#7"/>
    <trip id="truck133" type="truck_truck" depart="322.68" departLane="best" departSpeed="max" from="408059049" to="28130191"/>
    <trip id="truck134" type="truck_truck" depart="325.10" departLane="best" departSpeed="max" from="-709003830" to="28116038"/>
    <trip id="truck135" type="truck_truck" depart="327.53" departLane="best" departSpeed="max" from="28036980#0" to="-28125045#1"/>
    <trip id="truck136" type="truck_truck" depart="329.96" departLane="best" from="406788860#1" to="-712330707#2"/>
    <trip id="truck137" type="truck_truck" depart="332.38" departLane="best" departSpeed="max" from="134640199" to="557152286#0"/>
    <trip id="truck139" type="truck_truck" depart="337.23" departLane="best" from="403276590#0" to="80677003#0"/>
    <trip id="truck140" type="truck_truck" depart="339.66" departLane="best" from="28135835#1" to="-28116046#0"/>
    <trip id="truck141" type="truck_truck" depart="342.09" departLane="best" departSpeed="max" from="406854414#0" to="407031094#2"/>
    <trip id="truck142" type="truck_truck" depart="344.51" departLane="best" from="-504070088" to="28126515#5"/>
    <trip id="truck143" type="truck_truck" depart="346.94" departLane="best" from="359889899#1" to="-403295691"/>
    <trip id="truck144" type="truck_truck" depart="349.37" departLane="best" from="132951281" to="408053417#0"/>
    <trip id="truck145" type="truck_truck" depart="351.79" departLane="best" from="676603221#7" to="1027257253#2"/>
    <trip id="truck146" type="truck_truck" depart="354.22" departLane="best" from="28125053#1" to="28037108"/>
    <trip id="truck147" type="truck_truck" depart="356.64" departLane="best" departSpeed="max" from="711870073" to="28116023#0"/>
    <trip id="truck148" type="truck_truck" depart="359.07" departLane="best" from="414512253#10" to="28123890#4"/>
    <trip id="truck149" type="truck_truck" depart="361.50" departLane="best" departSpeed="max" from="677721625" to="28129397#3"/>
    <trip id="truck150" type="truck_truck" depart="363.92" departLane="best" from="676058146#0" to="712349119"/>
    <trip id="truck151" type="truck_truck" depart="366.35" departLane="best" from="-28116050" to="28107507"/>
    <trip id="truck152" type="truck_truck" depart="368.77" departLane="best" from="-28129401#8" to="1285895521"/>
    <trip id="truck153" type="truck_truck" depart="371.20" departLane="best" from="28123894#1" to="28115477#1"/>
    <trip id="truck154" type="truck_truck" depart="373.63" departLane="best" from="229024196#7" to="28116410#0"/>
    <trip id="truck155" type="truck_truck" depart="376.05" departLane="best" from="-712349117#0" to="28129401#6"/>
    <trip id="truck156" type="truck_truck" depart="378.48" departLane="best" from="-1221473382" to="-510525361#3"/>
    <trip id="truck157" type="truck_truck" depart="380.91" departLane="best" from="28129415#3" to="28129388#1"/>
    <trip id="truck158" type="truck_truck" depart="383.33" departLane="best" from="220518886#2" to="-28115473#1"/>
    <trip id="truck159" type="truck_truck" depart="385.76" departLane="best" from="28126530#4" to="157863240#2"/>
    <trip id="truck160" type="truck_truck" depart="388.18" departLane="best" departSpeed="max" from="1271487156" to="406853528#2"/>
    <trip id="truck161" type="truck_truck" depart="390.61" departLane="best" from="28129400#10" to="125076885#4"/>
    <trip id="truck162" type="truck_truck" depart="393.04" departLane="best" from="125194730" to="28101953"/>
    <trip id="truck163" type="truck_truck" depart="395.46" departLane="best" departSpeed="max" from="28026074#0" to="1221473385#2"/>
    <trip id="truck164" type="truck_truck" depart="397.89" departLane="best" from="-28125045#6" to="28106439"/>
    <trip id="truck165" type="truck_truck" depart="400.31" departLane="best" from="414512253#2" to="28129390#0"/>
    <trip id="truck166" type="truck_truck" depart="402.74" departLane="best" from="408407597#7" to="28125037"/>
    <trip id="truck167" type="truck_truck" depart="405.17" departLane="best" departSpeed="max" from="1213283904" to="28116036#3"/>
    <trip id="truck168" type="truck_truck" depart="407.59" departLane="best" from="-1189349867#0" to="1043108985#0"/>
    <trip id="truck169" type="truck_truck" depart="410.02" departLane="best" departSpeed="max" from="28107250#0" to="407031094#6"/>
    <trip id="truck170" type="truck_truck" depart="412.45" departLane="best" from="28126521#2" to="28112180#7"/>
    <trip id="truck171" type="truck_truck" depart="414.87" departLane="best" from="28108365#0" to="-28135829"/>
    <trip id="truck172" type="truck_truck" depart="417.30" departLane="best" from="28112854#0" to="413958886#3"/>
    <trip id="truck173" type="truck_truck" depart="419.72" departLane="best" from="-28115479#5" to="28115477#2"/>
    <trip id="truck174" type="truck_truck" depart="422.15" departLane="best" from="-28125045#2" to="158729716#11"/>
    <trip id="truck175" type="truck_truck" depart="424.58" departLane="best" departSpeed="max" from="403295691" to="28131232#5"/>
    <trip id="truck176" type="truck_truck" depart="427.00" departLane="best" from="28126535#8" to="-403276590#2"/>
    <trip id="truck177" type="truck_truck" depart="429.43" departLane="best" departSpeed="max" from="-360771864" to="-134640199"/>
    <trip id="truck178" type="truck_truck" depart="431.85" departLane="best" from="404480132" to="-28115474#0"/>
    <trip id="truck179" type="truck_truck" depart="434.28" departLane="best" from="28101961#0" to="28125052"/>
    <trip id="truck180" type="truck_truck" depart="436.71" departLane="best" departSpeed="max" from="328231642" to="28129399#12"/>
    <trip id="truck181" type="truck_truck" depart="439.13" departLane="best" from="28126525#2" to="-1213283904"/>
    <trip id="truck183" type="truck_truck" depart="443.98" departLane="best" from="28129421#3" to="709003824"/>
    <trip id="truck184" type="truck_truck" depart="446.41" departLane="best" from="28115479#1" to="-28107505"/>
    <trip id="truck186" type="truck_truck" depart="451.26" departLane="best" from="28126532#4" to="743107422"/>
    <trip id="truck188" type="truck_truck" depart="456.12" departLane="best" from="407986582#1" to="28125036#1"/>
    <trip id="truck189" type="truck_truck" depart="458.54" departLane="best" from="28129400#1" to="28115472#7"/>
    <trip id="truck190" type="truck_truck" depart="460.97" departLane="best" departSpeed="max" from="408059049" to="28129438#6"/>
    <trip id="truck191" type="truck_truck" depart="463.39" departLane="best" from="28112855#1" to="-712330707#0"/>
    <trip id="truck192" type="truck_truck" depart="465.82" departLane="best" departSpeed="max" from="-709003830" to="28126514#0"/>
    <trip id="truck193" type="truck_truck" depart="468.25" departLane="best" from="229024196#1" to="28115479#6"/>
    <trip id="truck194" type="truck_truck" depart="470.67" departLane="best" departSpeed="max" from="28125042#0" to="1024989366-AddedOffRampEdge"/>
    <trip id="truck195" type="truck_truck" depart="473.10" departLane="best" from="-28115473#0" to="1043108984#0"/>
    <trip id="truck196" type="truck_truck" depart="475.52" departLane="best" departSpeed="max" from="-934475015" to="132951277"/>
    <trip id="truck197" type="truck_truck" depart="477.95" departLane="best" from="28116027#5" to="-28125045#4"/>
    <trip id="truck198" type="truck_truck" depart="480.38" departLane="best" from="28129395#1" to="-28112649#1"/>
    <trip id="truck199" type="truck_truck" depart="482.80" departLane="best" departSpeed="max" from="28036980#0" to="-28116030"/>
    <trip id="truck200" type="truck_truck" depart="485.23" departLane="best" from="28101961#3" to="-28129442#0"/>
    <trip id="truck201" type="truck_truck" depart="487.66" departLane="best" from="-28106438#4" to="413958888#0-AddedOnRampEdge"/>
    <trip id="truck202" type="truck_truck" depart="490.08" departLane="best" from="28118325#5" to="28129399#10"/>
    <trip id="truck203" type="truck_truck" depart="492.51" departLane="best" departSpeed="max" from="406656757#0" to="309750342#5"/>
    <trip id="truck204" type="truck_truck" depart="494.93" departLane="best" from="229024195#7" to="-1213283904"/>
    <trip id="truck205" type="truck_truck" depart="497.36" departLane="best" from="196602286#1" to="28135827#1"/>
    <trip id="truck206" type="truck_truck" depart="499.79" departLane="best" from="404480952#4" to="681450584"/>
    <trip id="truck207" type="truck_truck" depart="502.21" departLane="best" from="28106438#1" to="28129445#1"/>
    <trip id="truck208" type="truck_truck" depart="504.64" departLane="best" from="28116036#1" to="28123897#3"/>
    <trip id="truck209" type="truck_truck" depart="507.06" departLane="best" departSpeed="max" from="-504070086" to="28135835#1"/>
    <trip id="truck210" type="truck_truck" depart="509.49" departLane="best" from="28107509#0" to="-196602728"/>
    <trip id="truck211" type="truck_truck" depart="511.92" departLane="best" from="157863240#3" to="28129390#5"/>
    <trip id="truck212" type="truck_truck" depart="514.34" departLane="best" from="28026074#1-AddedOffRampEdge" to="-28129390#5"/>
    <trip id="truck213" type="truck_truck" depart="516.77" departLane="best" from="28112381#4" to="-28125035"/>
    <trip id="truck214" type="truck_truck" depart="519.20" departLane="best" departSpeed="max" from="28125035" to="-176359456#0"/>
    <trip id="truck215" type="truck_truck" depart="521.62" departLane="best" from="254682066#7" to="28116049#17"/>
    <trip id="truck216" type="truck_truck" depart="524.05" departLane="best" departSpeed="max" from="-28107506#1" to="229024196#10"/>
    <trip id="truck217" type="truck_truck" depart="526.47" departLane="best" from="-405026172#3" to="1356660500"/>
    <trip id="truck218" type="truck_truck" depart="528.90" departLane="best" from="28129431#4" to="406662786#0"/>
    <trip id="truck219" type="truck_truck" depart="531.33" departLane="best" departSpeed="max" from="-709003831" to="-28115478"/>
    <trip id="truck220" type="truck_truck" depart="533.75" departLane="best" departSpeed="max" from="1273797892" to="-28116027#0"/>
    <trip id="truck221" type="truck_truck" depart="536.18" departLane="best" from="-901206073#2" to="203541743#6"/>
    <trip id="truck222" type="truck_truck" depart="538.60" departLane="best" from="28126515#1" to="-389744125"/>
    <trip id="truck223" type="truck_truck" depart="541.03" departLane="best" from="28126515#5" to="28135827#2"/>
    <trip id="truck224" type="truck_truck" depart="543.46" departLane="best" from="504070089" to="-28129433#0"/>
    <trip id="truck225" type="truck_truck" depart="545.88" departLane="best" from="-1302274708#1" to="28129385#0"/>
    <trip id="truck226" type="truck_truck" depart="548.31" departLane="best" from="-28125045#2" to="-28129385#0"/>
    <trip id="truck228" type="truck_truck" depart="553.16" departLane="best" from="28129391#8" to="309750342#8"/>
    <trip id="truck229" type="truck_truck" depart="555.59" departLane="best" from="28129403#1" to="-28125034#3"/>
    <trip id="truck230" type="truck_truck" depart="558.01" departLane="best" from="28129426#2" to="-28123890#2"/>
    <trip id="truck231" type="truck_truck" depart="560.44" departLane="best" departSpeed="max" from="403295691" to="709003826"/>
    <trip id="truck232" type="truck_truck" depart="562.87" departLane="best" from="-28116048#1" to="-157863240#1"/>
    <trip id="truck233" type="truck_truck" depart="565.29" departLane="best" departSpeed="max" from="1270184228" to="28129390#0"/>
    <trip id="truck234" type="truck_truck" depart="567.72" departLane="best" from="559801745#1" to="254685049#5"/>
    <trip id="truck235" type="truck_truck" depart="570.14" departLane="best" from="28129399#12" to="-28115475#0"/>
    <trip id="truck236" type="truck_truck" depart="572.57" departLane="best" from="28129389#5" to="28125051"/>
    <trip id="truck237" type="truck_truck" depart="575.00" departLane="best" from="28116040#1" to="360771864"/>
    <trip id="truck238" type="truck_truck" depart="577.42" departLane="best" departSpeed="max" from="28135830" to="196865983"/>
    <trip id="truck239" type="truck_truck" depart="579.85" departLane="best" departSpeed="max" from="28107250#0" to="229024194#2"/>
    <trip id="truck240" type="truck_truck" depart="582.28" departLane="best" from="28115477#0" to="159306775#1"/>
    <trip id="truck241" type="truck_truck" depart="584.70" departLane="best" from="404480132" to="403516276#6"/>
    <trip id="truck242" type="truck_truck" depart="587.13" departLane="best" from="-28116042#3" to="709003824"/>
    <trip id="truck243" type="truck_truck" depart="589.55" departLane="best" from="-28125045#9" to="404480952#2"/>
    <trip id="truck244" type="truck_truck" depart="591.98" departLane="best" from="-28129396#1" to="28107509#0"/>