<?xml version="1.0" encoding="UTF-8"?>

<!-- generated on 2025-04-21 22:49:27.916639 by osmWebWizard.py v1_22_0+0002-63e50f52594
<configuration>
    <net-file value="C:\Users\micha\Sumo\2025-04-21-22-49-18\osm.net.xml.gz"/>
    <output-trip-file value="C:\Users\micha\Sumo\2025-04-21-22-49-18\osm.passenger.trips.xml"/>
    <route-file value="C:\Users\micha\Sumo\2025-04-21-22-49-18\osm.passenger.rou.xml"/>
    <prefix value="veh"/>
    <trip-attributes value="departLane=&quot;best&quot;"/>
    <fringe-start-attributes value="departSpeed=&quot;max&quot;"/>
    <vehicle-class value="passenger"/>
    <lanes value="True"/>
    <fringe-factor value="20"/>
    <allow-fringe.min-length value="1000.0"/>
    <via-edge-types value="highway.motorway,highway.motorway_link,highway.trunk_link,highway.primary_link,highway.secondary_link,highway.tertiary_link"/>
    <min-distance value="300.0"/>
    <min-distance.fringe value="10.0"/>
    <remove-loops value="True"/>
    <validate value="True"/>
    <insertion-density value="12.0"/>
</configuration>
-->

<!-- generated on 2025-04-21 22:49:26 by Eclipse SUMO duarouter Version 1.22.0
<duarouterConfiguration xmlns:xsi="http://www.w3.org/2001/XMLSchema-instance" xsi:noNamespaceSchemaLocation="http://sumo.dlr.de/xsd/duarouterConfiguration.xsd">

    <input>
        <net-file value="C:\Users\micha\Sumo\2025-04-21-22-49-18\osm.net.xml.gz"/>
        <route-files value="C:\Users\micha\Sumo\2025-04-21-22-49-18\osm.passenger.trips.xml"/>
    </input>

    <output>
        <output-file value="C:\Users\micha\Sumo\2025-04-21-22-49-18\osm.passenger.trips.xml.tmp"/>
        <alternatives-output value="NUL"/>
        <write-trips value="true"/>
    </output>

    <processing>
        <remove-loops value="true"/>
    </processing>

    <time>
        <begin value="0.0"/>
        <end value="3600.0"/>
    </time>

    <report>
        <no-warnings value="true"/>
        <ignore-errors value="true"/>
        <no-step-log value="true"/>
    </report>

</duarouterConfiguration>
-->

<routes xmlns:xsi="http://www.w3.org/2001/XMLSchema-instance" xsi:noNamespaceSchemaLocation="http://sumo.dlr.de/xsd/routes_file.xsd">
    <vType id="veh_passenger" vClass="passenger"/>
    <trip id="veh0" type="veh_passenger" depart="0.00" departLane="best" from="28126525#5" to="-134640199"/>
    <trip id="veh1" type="veh_passenger" depart="1.62" departLane="best" from="125074219" to="-712330707#0"/>
    <trip id="veh2" type="veh_passenger" depart="3.23" departLane="best" from="359889899#0" to="28129403#8"/>
    <trip id="veh3" type="veh_passenger" depart="4.85" departLane="best" departSpeed="max" from="410359601#0" to="28116038"/>
    <trip id="veh4" type="veh_passenger" depart="6.47" departLane="best" departSpeed="max" from="28107250#0" to="-196602286#0"/>
    <trip id="veh5" type="veh_passenger" depart="8.09" departLane="best" from="28126539#0" to="28116049#15"/>
    <trip id="veh6" type="veh_passenger" depart="9.70" departLane="best" from="-867859355" to="28118333"/>
    <trip id="veh7" type="veh_passenger" depart="11.32" departLane="best" departSpeed="max" from="406854414#0" to="-1213283904"/>
    <trip id="veh8" type="veh_passenger" depart="12.94" departLane="best" departSpeed="max" from="406854414#0" to="28135827#2"/>
    <trip id="veh9" type="veh_passenger" depart="14.56" departLane="best" from="220520300#2" to="28129401#8"/>
    <trip id="veh10" type="veh_passenger" depart="16.17" departLane="best" from="676058146#0" to="229021939"/>
    <trip id="veh11" type="veh_passenger" depart="17.79" departLane="best" from="28125034#3" to="-28123890#4"/>
    <trip id="veh12" type="veh_passenger" depart="19.41" departLane="best" from="407986582#1" to="-28125034#7"/>
    <trip id="veh13" type="veh_passenger" depart="21.03" departLane="best" departSpeed="max" from="406854414#0" to="403271679#1"/>
    <trip id="veh14" type="veh_passenger" depart="22.64" departLane="best" departSpeed="max" from="28116046#0" to="711870074#0"/>
    <trip id="veh15" type="veh_passenger" depart="24.26" departLane="best" departSpeed="max" from="28026074#0" to="28116401#1"/>
    <trip id="veh16" type="veh_passenger" depart="25.88" departLane="best" from="407031092#1" to="28125045#9"/>
    <trip id="veh17" type="veh_passenger" depart="27.50" departLane="best" from="408407597#2" to="407031094#6"/>
    <trip id="veh18" type="veh_passenger" depart="29.11" departLane="best" from="28129432#6" to="28107506#0"/>
    <trip id="veh19" type="veh_passenger" depart="30.73" departLane="best" departSpeed="max" from="-934475015" to="1356660500"/>
    <trip id="veh20" type="veh_passenger" depart="32.35" departLane="best" from="28116027#2" to="1024989362#4"/>
    <trip id="veh21" type="veh_passenger" depart="33.97" departLane="best" from="-28125045#12" to="1270184234"/>
    <trip id="veh22" type="veh_passenger" depart="35.58" departLane="best" from="28126515#4" to="229024196#11"/>
    <trip id="veh24" type="veh_passenger" depart="38.82" departLane="best" from="1189349867#2" to="676603221#12"/>
    <trip id="veh25" type="veh_passenger" depart="40.44" departLane="best" from="28126535#8" to="28125037"/>
    <trip id="veh26" type="veh_passenger" depart="42.05" departLane="best" departSpeed="max" from="-41937497#1" to="403271679#1"/>
    <trip id="veh27" type="veh_passenger" depart="43.67" departLane="best" from="-404480134" to="28026074#1"/>
    <trip id="veh28" type="veh_passenger" depart="45.29" departLane="best" from="712349117#3" to="28126532#6"/>
    <trip id="veh29" type="veh_passenger" depart="46.91" departLane="best" from="28116410#0" to="28129429"/>
    <trip id="veh30" type="veh_passenger" depart="48.52" departLane="best" from="407031094#4" to="406797074"/>
    <trip id="veh31" type="veh_passenger" depart="50.14" departLane="best" from="158729716#4" to="1268135152"/>
    <trip id="veh32" type="veh_passenger" depart="51.76" departLane="best" departSpeed="max" from="-709003831" to="678757385#0"/>
    <trip id="veh33" type="veh_passenger" depart="53.38" departLane="best" departSpeed="max" from="410348025" to="196602728"/>
    <trip id="veh34" type="veh_passenger" depart="54.99" departLane="best" departSpeed="max" from="-28129384#0" to="28101618"/>
    <trip id="veh35" type="veh_passenger" depart="56.61" departLane="best" departSpeed="max" from="413956388#0" to="28112180#6"/>
    <trip id="veh36" type="veh_passenger" depart="58.23" departLane="best" from="1043108985#8" to="1042328499#0"/>
    <trip id="veh37" type="veh_passenger" depart="59.84" departLane="best" from="28118325#2" to="1221473385#4"/>
    <trip id="veh39" type="veh_passenger" depart="63.08" departLane="best" departSpeed="max" from="28036980#0" to="-677721625"/>
    <trip id="veh40" type="veh_passenger" depart="64.70" departLane="best" from="80677003#0" to="28115473#0"/>
    <trip id="veh41" type="veh_passenger" depart="66.31" departLane="best" from="-28123899#0" to="28107510#1"/>
    <trip id="veh42" type="veh_passenger" depart="67.93" departLane="best" from="-28125056#3" to="28126513#1"/>
    <trip id="veh43" type="veh_passenger" depart="69.55" departLane="best" departSpeed="max" from="406656757#0" to="28106441#6"/>
    <trip id="veh44" type="veh_passenger" depart="71.17" departLane="best" departSpeed="max" from="-28113262" to="28026074#2"/>
    <trip id="veh45" type="veh_passenger" depart="72.78" departLane="best" from="739945909#2" to="28116022#0"/>
    <trip id="veh46" type="veh_passenger" depart="74.40" departLane="best" from="678757386#0" to="413958886#3"/>
    <trip id="veh47" type="veh_passenger" depart="76.02" departLane="best" departSpeed="max" from="-1270184225" to="-389744125"/>
    <trip id="veh48" type="veh_passenger" depart="77.64" departLane="best" from="28129399#4" to="28116036#6"/>
    <trip id="veh49" type="veh_passenger" depart="79.25" departLane="best" from="1189349867#2" to="28126535#2"/>
    <trip id="veh51" type="veh_passenger" depart="82.49" departLane="best" from="28112381#1" to="709003824"/>
    <trip id="veh52" type="veh_passenger" depart="84.11" departLane="best" departSpeed="max" from="410348025" to="124950613#0"/>
    <trip id="veh53" type="veh_passenger" depart="85.72" departLane="best" departSpeed="max" from="28115478" to="-28135829"/>
    <trip id="veh54" type="veh_passenger" depart="87.34" departLane="best" departSpeed="max" from="134640199" to="28126532#2"/>
    <trip id="veh55" type="veh_passenger" depart="88.96" departLane="best" departSpeed="max" from="28125035" to="-28129401#0"/>
    <trip id="veh56" type="veh_passenger" depart="90.58" departLane="best" from="403305635#4" to="28116040#4"/>
    <trip id="veh57" type="veh_passenger" depart="92.19" departLane="best" departSpeed="max" from="404462145#0" to="28116024#1"/>
    <trip id="veh58" type="veh_passenger" depart="93.81" departLane="best" from="-1189349867#2" to="220518886#15"/>
    <trip id="veh59" type="veh_passenger" depart="95.43" departLane="best" departSpeed="max" from="1273797892" to="676603221#12"/>
    <trip id="veh60" type="veh_passenger" depart="97.05" departLane="best" departSpeed="max" from="410348025" to="408407611#3"/>
    <trip id="veh61" type="veh_passenger" depart="98.66" departLane="best" from="158729716#10" to="-28115474#0"/>
    <trip id="veh62" type="veh_passenger" depart="100.28" departLane="best" departSpeed="max" from="410348025" to="709003823"/>
    <trip id="veh63" type="veh_passenger" depart="101.90" departLane="best" from="-28116040#5" to="28112854#3"/>
    <trip id="veh64" type="veh_passenger" depart="103.52" departLane="best" from="203541744#5" to="404480135#0"/>
    <trip id="veh65" type="veh_passenger" depart="105.13" departLane="best" from="403393361#1" to="-28129383"/>
    <trip id="veh66" type="veh_passenger" depart="106.75" departLane="best" departSpeed="max" from="28114944" to="28116401#1"/>
    <trip id="veh67" type="veh_passenger" depart="108.37" departLane="best" from="1043108985#8" to="413963406"/>
    <trip id="veh68" type="veh_passenger" depart="109.99" departLane="best" departSpeed="max" from="28107250#0" to="527641072#0"/>
    <trip id="veh69" type="veh_passenger" depart="111.60" departLane="best" departSpeed="max" from="28116046#0" to="403271679#1"/>
    <trip id="veh70" type="veh_passenger" depart="113.22" departLane="best" departSpeed="max" from="-709003826" to="159306775#2"/>
    <trip id="veh71" type="veh_passenger" depart="114.84" departLane="best" from="722356362#4" to="28129388#1"/>
    <trip id="veh72" type="veh_passenger" depart="116.46" departLane="best" from="28112179#2" to="28115479#3"/>
    <trip id="veh73" type="veh_passenger" depart="118.07" departLane="best" from="28129390#3" to="-712330707#0"/>
    <trip id="veh74" type="veh_passenger" depart="119.69" departLane="best" from="220518886#7" to="28118333"/>
    <trip id="veh75" type="veh_passenger" depart="121.31" departLane="best" departSpeed="max" from="-934475015" to="-678757385#1"/>
    <trip id="veh76" type="veh_passenger" depart="122.92" departLane="best" from="-28115479#2" to="28126517#1-AddedOffRampEdge"/>
    <trip id="veh78" type="veh_passenger" depart="126.16" departLane="best" from="408407591#1" to="-28115478"/>
    <trip id="veh80" type="veh_passenger" depart="129.39" departLane="best" departSpeed="max" from="-743107422" to="28129385#0"/>
    <trip id="veh81" type="veh_passenger" depart="131.01" departLane="best" departSpeed="max" from="28114941#0" to="407031093#3"/>
    <trip id="veh82" type="veh_passenger" depart="132.63" departLane="best" departSpeed="max" from="406854414#0" to="-403276590#3"/>
    <trip id="veh83" type="veh_passenger" depart="134.25" departLane="best" departSpeed="max" from="-28125036#1" to="28107506#1"/>
    <trip id="veh84" type="veh_passenger" depart="135.86" departLane="best" departSpeed="max" from="28107250#0" to="28112181#12"/>
    <trip id="veh85" type="veh_passenger" depart="137.48" departLane="best" departSpeed="max" from="28135830" to="28129402#2"/>
    <trip id="veh86" type="veh_passenger" depart="139.10" departLane="best" departSpeed="max" from="711870073" to="-28123899#1"/>
    <trip id="veh87" type="veh_passenger" depart="140.72" departLane="best" departSpeed="max" from="28036980#0" to="229021939"/>
    <trip id="veh88" type="veh_passenger" depart="142.33" departLane="best" from="408407597#2" to="1042328499#5"/>
    <trip id="veh89" type="veh_passenger" depart="143.95" departLane="best" departSpeed="max" from="-709003824" to="28108372#1"/>
    <trip id="veh90" type="veh_passenger" depart="145.57" departLane="best" departSpeed="max" from="28107250#0" to="1270184234"/>
    <trip id="veh91" type="veh_passenger" depart="147.19" departLane="best" from="1027257253#2" to="670794034"/>
    <trip id="veh92" type="veh_passenger" depart="148.80" departLane="best" from="28112180#14" to="413958886#4"/>
    <trip id="veh93" type="veh_passenger" depart="150.42" departLane="best" from="28116406#1" to="-28108369#0"/>
    <trip id="veh94" type="veh_passenger" depart="152.04" departLane="best" from="901206073#0" to="410348022"/>
    <trip id="veh95" type="veh_passenger" depart="153.66" departLane="best" departSpeed="max" from="677721625" to="676603221#0"/>
    <trip id="veh96" type="veh_passenger" depart="155.27" departLane="best" from="408059047#1" to="-28129433#0"/>
    <trip id="veh97" type="veh_passenger" depart="156.89" departLane="best" departSpeed="max" from="28115474#0" to="-529702625#1"/>
    <trip id="veh98" type="veh_passenger" depart="158.51" departLane="best" departSpeed="max" from="28036980#0" to="-28115474#0"/>
    <trip id="veh99" type="veh_passenger" depart="160.13" departLane="best" departSpeed="max" from="28026074#0" to="743107422"/>
    <trip id="veh100" type="veh_passenger" depart="161.74" departLane="best" from="1043108985#9" to="407031093#11"/>
    <trip id="veh101" type="veh_passenger" depart="163.36" departLane="best" from="28112381#3" to="28106443"/>
    <trip id="veh102" type="veh_passenger" depart="164.98" departLane="best" from="676058146#0" to="934475015"/>
    <trip id="veh103" type="veh_passenger" depart="166.60" departLane="best" from="28116406#6" to="37976807#9"/>
    <trip id="veh104" type="veh_passenger" depart="168.21" departLane="best" departSpeed="max" from="-360771864" to="158414301#3"/>
    <trip id="veh105" type="veh_passenger" depart="169.83" departLane="best" departSpeed="max" from="677721625" to="28118325#7"/>
    <trip id="veh106" type="veh_passenger" depart="171.45" departLane="best" from="28116049#0" to="403393361#1"/>
    <trip id="veh107" type="veh_passenger" depart="173.07" departLane="best" departSpeed="max" from="-28108370#2" to="158414301#4"/>
    <trip id="veh108" type="veh_passenger" depart="174.68" departLane="best" departSpeed="max" from="28115478" to="410359601#4"/>
    <trip id="veh109" type="veh_passenger" depart="176.30" departLane="best" departSpeed="max" from="-360771864" to="709003826"/>
    <trip id="veh111" type="veh_passenger" depart="179.53" departLane="best" from="28123893#1" to="-28129403#1"/>
    <trip id="veh112" type="veh_passenger" depart="181.15" departLane="best" departSpeed="max" from="1005428374" to="-28125048"/>
    <trip id="veh113" type="veh_passenger" depart="182.77" departLane="best" departSpeed="max" from="410359601#0" to="1042327037"/>
    <trip id="veh114" type="veh_passenger" depart="184.39" departLane="best" from="28123893#0" to="28125051"/>
    <trip id="veh115" type="veh_passenger" depart="186.00" departLane="best" from="28107240" to="-254682066#7"/>
    <trip id="veh116" type="veh_passenger" depart="187.62" departLane="best" from="28116031#3" to="676603221#12"/>
    <trip id="veh117" type="veh_passenger" depart="189.24" departLane="best" departSpeed="max" from="-709003830" to="360771864"/>
    <trip id="veh119" type="veh_passenger" depart="192.47" departLane="best" from="28129393#6" to="158729716#10"/>
    <trip id="veh120" type="veh_passenger" depart="194.09" departLane="best" from="-901206073#0" to="403393361#8"/>
    <trip id="veh121" type="veh_passenger" depart="195.71" departLane="best" from="-28115482#1" to="28112180#5"/>
    <trip id="veh122" type="veh_passenger" depart="197.33" departLane="best" from="80677008" to="934475015"/>
    <trip id="veh123" type="veh_passenger" depart="198.94" departLane="best" from="-28115485#2" to="-527641072#5"/>
    <trip id="veh124" type="veh_passenger" depart="200.56" departLane="best" from="1043108985#9" to="676603221#12"/>
    <trip id="veh125" type="veh_passenger" depart="202.18" departLane="best" departSpeed="max" from="410348025" to="413963406"/>
    <trip id="veh126" type="veh_passenger" depart="203.80" departLane="best" departSpeed="max" from="28026074#0" to="-28129403#8"/>
    <trip id="veh127" type="veh_passenger" depart="205.41" departLane="best" from="407031093#5" to="28135833#1"/>
    <trip id="veh128" type="veh_passenger" depart="207.03" departLane="best" departSpeed="max" from="28125035" to="743107422"/>
    <trip id="veh129" type="veh_passenger" depart="208.65" departLane="best" departSpeed="max" from="28129384#0" to="-1213283904"/>
    <trip id="veh130" type="veh_passenger" depart="210.27" departLane="best" departSpeed="max" from="406854414#0" to="158729716#1"/>
    <trip id="veh131" type="veh_passenger" depart="211.88" departLane="best" from="28129389#2" to="676603221#5"/>
    <trip id="veh132" type="veh_passenger" depart="213.50" departLane="best" from="-28129418#4" to="-28125042#0"/>
    <trip id="veh133" type="veh_passenger" depart="215.12" departLane="best" departSpeed="max" from="-28125051" to="28116401#1"/>
    <trip id="veh134" type="veh_passenger" depart="216.74" departLane="best" from="1221473383" to="28125036#1"/>
    <trip id="veh135" type="veh_passenger" depart="218.35" departLane="best" departSpeed="max" from="28129442#0" to="406809411"/>
    <trip id="veh136" type="veh_passenger" depart="219.97" departLane="best" from="28126514#1" to="125074219"/>
    <trip id="veh138" type="veh_passenger" depart="223.21" departLane="best" from="407722419" to="-28116046#0"/>
    <trip id="veh139" type="veh_passenger" depart="224.82" departLane="best" departSpeed="max" from="28107250#0" to="1270184234"/>
    <trip id="veh140" type="veh_passenger" depart="226.44" departLane="best" departSpeed="max" from="-1268135152" to="406788860#0"/>
    <trip id="veh141" type="veh_passenger" depart="228.06" departLane="best" from="28126517#1-AddedOffRampEdge" to="1221473385#1"/>
    <trip id="veh142" type="veh_passenger" depart="229.68" departLane="best" from="28101503" to="28116401#1"/>
    <trip id="veh143" type="veh_passenger" depart="231.29" departLane="best" from="-28107507" to="-1213283904"/>
    <trip id="veh144" type="veh_passenger" depart="232.91" departLane="best" departSpeed="max" from="-28115485#3" to="414512253#8"/>
    <trip id="veh145" type="veh_passenger" depart="234.53" departLane="best" from="410359601#7" to="28116049#18"/>
    <trip id="veh146" type="veh_passenger" depart="236.14" departLane="best" from="407031093#6" to="28118326#4"/>
    <trip id="veh147" type="veh_passenger" depart="237.76" departLane="best" departSpeed="max" from="-28135835#3" to="-28126526"/>
    <trip id="veh148" type="veh_passenger" depart="239.38" departLane="best" from="158729716#11" to="557152286#0"/>
    <trip id="veh149" type="veh_passenger" depart="241.00" departLane="best" departSpeed="max" from="406656757#0" to="413958886#3"/>
    <trip id="veh152" type="veh_passenger" depart="245.85" departLane="best" departSpeed="max" from="28101614" to="28125051"/>
    <trip id="veh153" type="veh_passenger" depart="247.47" departLane="best" departSpeed="max" from="-360771864" to="676603221#12"/>
    <trip id="veh154" type="veh_passenger" depart="249.08" departLane="best" from="408407597#6" to="722356357"/>
    <trip id="veh155" type="veh_passenger" depart="250.70" departLane="best" departSpeed="max" from="406854414#0" to="414512253#11"/>
    <trip id="veh156" type="veh_passenger" depart="252.32" departLane="best" departSpeed="max" from="-1356660500" to="403292592#1"/>
    <trip id="veh157" type="veh_passenger" depart="253.94" departLane="best" from="220518886#16" to="676603221#12"/>
    <trip id="veh158" type="veh_passenger" depart="255.55" departLane="best" from="406844902" to="413958887#0-AddedOffRampEdge"/>
    <trip id="veh159" type="veh_passenger" depart="257.17" departLane="best" departSpeed="max" from="406854414#0" to="1268135152"/>
    <trip id="veh160" type="veh_passenger" depart="258.79" departLane="best" departSpeed="max" from="406656757#0" to="-28125035"/>
    <trip id="veh161" type="veh_passenger" depart="260.41" departLane="best" from="408407611#7" to="413958886#0"/>
    <trip id="veh162" type="veh_passenger" depart="262.02" departLane="best" departSpeed="max" from="-901206072#1" to="408407604#4-AddedOffRampEdge"/>
    <trip id="veh163" type="veh_passenger" depart="263.64" departLane="best" from="28112854#1" to="158729716#16"/>
    <trip id="veh164" type="veh_passenger" depart="265.26" departLane="best" departSpeed="max" from="406656757#0" to="-712349119"/>
    <trip id="veh165" type="veh_passenger" depart="266.88" departLane="best" from="132951281" to="-403295691"/>
    <trip id="veh166" type="veh_passenger" depart="268.49" departLane="best" from="220518886#10" to="413958887#1"/>
    <trip id="veh167" type="veh_passenger" depart="270.11" departLane="best" departSpeed="max" from="677721625" to="1270184234"/>
    <trip id="veh168" type="veh_passenger" depart="271.73" departLane="best" from="28126528#3" to="28101953"/>
    <trip id="veh169" type="veh_passenger" depart="273.35" departLane="best" departSpeed="max" from="685838683" to="28116036#3"/>
    <trip id="veh170" type="veh_passenger" depart="274.96" departLane="best" departSpeed="max" from="41937497#0" to="-28125042#0"/>
    <trip id="veh171" type="veh_passenger" depart="276.58" departLane="best" from="677721631" to="-28135829"/>
    <trip id="veh172" type="veh_passenger" depart="278.20" departLane="best" from="676603221#8" to="125207719#1"/>
    <trip id="veh174" type="veh_passenger" depart="281.43" departLane="best" departSpeed="max" from="28135830" to="180435469#2-AddedOnRampEdge"/>
    <trip id="veh175" type="veh_passenger" depart="283.05" departLane="best" departSpeed="max" from="28125033#0" to="28115475#2"/>
    <trip id="veh176" type="veh_passenger" depart="284.67" departLane="best" from="28026074#1-AddedOffRampEdge" to="28118325#2"/>
    <trip id="veh177" type="veh_passenger" depart="286.29" departLane="best" from="1042328499#5" to="309750342#7"/>
    <trip id="veh179" type="veh_passenger" depart="289.52" departLane="best" departSpeed="max" from="28116046#0" to="384025218#1"/>
    <trip id="veh180" type="veh_passenger" depart="291.14" departLane="best" from="384025218#1" to="28129401#11"/>
    <trip id="veh181" type="veh_passenger" depart="292.76" departLane="best" from="254682066#1" to="-28115478"/>
    <trip id="veh182" type="veh_passenger" depart="294.37" departLane="best" from="28129389#5" to="220518886#8"/>
    <trip id="veh183" type="veh_passenger" depart="295.99" departLane="best" from="158729716#2" to="410359601#12"/>
    <trip id="veh184" type="veh_passenger" depart="297.61" departLane="best" departSpeed="max" from="28129442#0" to="158729716#10"/>
    <trip id="veh185" type="veh_passenger" depart="299.22" departLane="best" from="158729716#12" to="28101961#8"/>
    <trip id="veh186" type="veh_passenger" depart="300.84" departLane="best" departSpeed="max" from="28036980#0" to="158414301#0"/>
    <trip id="veh187" type="veh_passenger" depart="302.46" departLane="best" from="-28129397#3" to="28106441#2"/>
    <trip id="veh188" type="veh_passenger" depart="304.08" departLane="best" departSpeed="max" from="41937497#0" to="28129405"/>
    <trip id="veh189" type="veh_passenger" depart="305.69" departLane="best" from="410359601#5" to="-28125044#1"/>
    <trip id="veh191" type="veh_passenger" depart="308.93" departLane="best" from="-1189349867#1" to="132951280#4"/>
    <trip id="veh192" type="veh_passenger" depart="310.55" departLane="best" from="28108145#1" to="28118325#9"/>
    <trip id="veh193" type="veh_passenger" depart="312.16" departLane="best" departSpeed="max" from="-28129384#0" to="28112181#12"/>
    <trip id="veh194" type="veh_passenger" depart="313.78" departLane="best" from="28112180#11" to="-529702625#1"/>
    <trip id="veh195" type="veh_passenger" depart="315.40" departLane="best" departSpeed="max" from="28114941#0" to="559801745#1"/>
    <trip id="veh196" type="veh_passenger" depart="317.02" departLane="best" departSpeed="max" from="406656757#0" to="-28129434#6"/>
    <trip id="veh197" type="veh_passenger" depart="318.63" departLane="best" from="-28116040#2" to="28115477#4"/>
    <trip id="veh198" type="veh_passenger" depart="320.25" departLane="best" from="28126513#1" to="229021939"/>
    <trip id="veh199" type="veh_passenger" depart="321.87" departLane="best" departSpeed="max" from="406854414#0" to="403393361#6"/>
    <trip id="veh200" type="veh_passenger" depart="323.49" departLane="best" from="28129394#3" to="-712330707#0"/>
    <trip id="veh201" type="veh_passenger" depart="325.10" departLane="best" departSpeed="max" from="-709003826" to="-134640199"/>
    <trip id="veh202" type="veh_passenger" depart="326.72" departLane="best" from="1027257247" to="28112181#9"/>
    <trip id="veh203" type="veh_passenger" depart="328.34" departLane="best" departSpeed="max" from="408059049" to="-28115478"/>
    <trip id="veh204" type="veh_passenger" depart="329.96" departLane="best" from="28106439" to="28126515#2"/>
    <trip id="veh205" type="veh_passenger" depart="331.57" departLane="best" departSpeed="max" from="-709003825" to="28131232#5"/>
    <trip id="veh206" type="veh_passenger" depart="333.19" departLane="best" from="28115475#1" to="1027257253#2"/>
    <trip id="veh207" type="veh_passenger" depart="334.81" departLane="best" departSpeed="max" from="-28129384#0" to="-1190504120"/>
    <trip id="veh208" type="veh_passenger" depart="336.43" departLane="best" from="403292593#1" to="406786260#6"/>
    <trip id="veh209" type="veh_passenger" depart="338.04" departLane="best" departSpeed="max" from="-28125051" to="28107367#0"/>
    <trip id="veh210" type="veh_passenger" depart="339.66" departLane="best" departSpeed="max" from="-504070086" to="709003825"/>
    <trip id="veh211" type="veh_passenger" depart="341.28" departLane="best" from="28116022#2" to="-28108367#4"/>
    <trip id="veh212" type="veh_passenger" depart="342.90" departLane="best" from="1027257253#2" to="410359601#14"/>
    <trip id="veh213" type="veh_passenger" depart="344.51" departLane="best" from="28112649#1" to="408059047#6"/>
    <trip id="veh214" type="veh_passenger" depart="346.13" departLane="best" from="28129391#1" to="407031094#13"/>
    <trip id="veh215" type="veh_passenger" depart="347.75" departLane="best" departSpeed="max" from="410359601#0" to="28125037"/>
    <trip id="veh216" type="veh_passenger" depart="349.37" departLane="best" departSpeed="max" from="28129442#0" to="28115472#0"/>
    <trip id="veh218" type="veh_passenger" depart="352.60" departLane="best" from="410359601#11" to="1346327596"/>
    <trip id="veh219" type="veh_passenger" depart="354.22" departLane="best" departSpeed="max" from="28114944" to="1043108985#9"/>
    <trip id="veh220" type="veh_passenger" depart="355.83" departLane="best" from="1027257250" to="28126530#4"/>
    <trip id="veh221" type="veh_passenger" depart="357.45" departLane="best" from="403393361#1" to="28115485#3"/>
    <trip id="veh222" type="veh_passenger" depart="359.07" departLane="best" departSpeed="max" from="28125050" to="1270184225"/>
    <trip id="veh223" type="veh_passenger" depart="360.69" departLane="best" departSpeed="max" from="-28115485#3" to="132951280#1"/>
    <trip id="veh224" type="veh_passenger" depart="362.30" departLane="best" departSpeed="max" from="28116046#0" to="-28129388#0"/>
    <trip id="veh225" type="veh_passenger" depart="363.92" departLane="best" departSpeed="max" from="1005428374" to="28129445#1"/>
    <trip id="veh226" type="veh_passenger" depart="365.54" departLane="best" departSpeed="max" from="28129433#0" to="-28115475#0"/>
    <trip id="veh227" type="veh_passenger" depart="367.16" departLane="best" departSpeed="max" from="28101614" to="28116046#1"/>
    <trip id="veh229" type="veh_passenger" depart="370.39" departLane="best" departSpeed="max" from="28107250#0" to="661591951"/>
    <trip id="veh231" type="veh_passenger" depart="373.63" departLane="best" departSpeed="max" from="408059049" to="406786260#3"/>
    <trip id="veh232" type="veh_passenger" depart="375.24" departLane="best" departSpeed="max" from="28026074#0" to="-1213283904"/>
    <trip id="veh233" type="veh_passenger" depart="376.86" departLane="best" from="229024195#3" to="403516274#2"/>
    <trip id="veh234" type="veh_passenger" depart="378.48" departLane="best" departSpeed="max" from="408059049" to="709003824"/>
    <trip id="veh235" type="veh_passenger" depart="380.10" departLane="best" from="28106563" to="403393361#0"/>
    <trip id="veh236" type="veh_passenger" depart="381.71" departLane="best" from="28116049#9" to="28125034#5"/>
    <trip id="veh237" type="veh_passenger" depart="383.33" departLane="best" from="-901206072#0" to="-677721627"/>
    <trip id="veh238" type="veh_passenger" depart="384.95" departLane="best" from="28108376" to="-157863240#2"/>
    <trip id="veh239" type="veh_passenger" depart="386.57" departLane="best" from="220518886#5" to="28129412#7"/>
    <trip id="veh240" type="veh_passenger" depart="388.18" departLane="best" departSpeed="max" from="28101614" to="-28129433#0"/>
    <trip id="veh241" type="veh_passenger" depart="389.80" departLane="best" departSpeed="max" from="28114941#0" to="-28126526"/>
    <trip id="veh242" type="veh_passenger" depart="391.42" departLane="best" from="28125045#2" to="-134640199"/>
    <trip id="veh244" type="veh_passenger" depart="394.65" departLane="best" departSpeed="max" from="-1356660500" to="28126537#0"/>