<?xml version="1.0" encoding="UTF-8"?>

<!-- generated on 2025-04-21 21:42:24.593820 by osmWebWizard.py v1_22_0+0002-63e50f52594
<configuration>
    <net-file value="C:\Users\micha\Sumo\2025-04-21-21-42-16\osm.net.xml.gz"/>
    <output-trip-file value="C:\Users\micha\Sumo\2025-04-21-21-42-16\osm.passenger.trips.xml"/>
    <route-file value="C:\Users\micha\Sumo\2025-04-21-21-42-16\osm.passenger.rou.xml"/>
    <prefix value="veh"/>
    <trip-attributes value="departLane=&quot;best&quot;"/>
    <fringe-start-attributes value="departSpeed=&quot;max&quot;"/>
    <vehicle-class value="passenger"/>
    <lanes value="True"/>
    <fringe-factor value="5"/>
    <allow-fringe.min-length value="1000.0"/>
    <via-edge-types value="highway.motorway,highway.motorway_link,highway.trunk_link,highway.primary_link,highway.secondary_link,highway.tertiary_link"/>
    <min-distance value="300.0"/>
    <min-distance.fringe value="10.0"/>
    <remove-loops value="True"/>
    <validate value="True"/>
    <insertion-density value="20.0"/>
</configuration>
-->

<!-- generated on 2025-04-21 21:42:24 by Eclipse SUMO duarouter Version 1.22.0
<duarouterConfiguration xmlns:xsi="http://www.w3.org/2001/XMLSchema-instance" xsi:noNamespaceSchemaLocation="http://sumo.dlr.de/xsd/duarouterConfiguration.xsd">

    <input>
        <net-file value="C:\Users\micha\Sumo\2025-04-21-21-42-16\osm.net.xml.gz"/>
        <route-files value="C:\Users\micha\Sumo\2025-04-21-21-42-16\osm.passenger.trips.xml"/>
    </input>

    <output>
        <output-file value="C:\Users\micha\Sumo\2025-04-21-21-42-16\osm.passenger.trips.xml.tmp"/>
        <alternatives-output value="NUL"/>
        <write-trips value="true"/>
    </output>

    <processing>
        <remove-loops value="true"/>
    </processing>

    <time>
        <begin value="0.0"/>
        <end value="3600.0"/>
    </time>

    <report>
        <no-warnings value="true"/>
        <ignore-errors value="true"/>
        <no-step-log value="true"/>
    </report>

</duarouterConfiguration>
-->

<routes xmlns:xsi="http://www.w3.org/2001/XMLSchema-instance" xsi:noNamespaceSchemaLocation="http://sumo.dlr.de/xsd/routes_file.xsd">
    <vType id="veh_passenger" vClass="passenger"/>
    <trip id="veh1" type="veh_passenger" depart="1.69" departLane="best" departSpeed="max" from="-28218052#1" to="-28216529#7"/>
    <trip id="veh2" type="veh_passenger" depart="3.39" departLane="best" from="28090694#0" to="28090685#7"/>
    <trip id="veh3" type="veh_passenger" depart="5.08" departLane="best" departSpeed="max" from="28242574" to="28089643#0"/>
    <trip id="veh4" type="veh_passenger" depart="6.78" departLane="best" from="28216535#10" to="28036991#17"/>
    <trip id="veh5" type="veh_passenger" depart="8.47" departLane="best" from="-158228205#7" to="-28091235"/>
    <trip id="veh6" type="veh_passenger" depart="10.17" departLane="best" from="28036995#8" to="28036995#14"/>
    <trip id="veh7" type="veh_passenger" depart="11.86" departLane="best" from="-28216535#2" to="28036995#32"/>
    <trip id="veh9" type="veh_passenger" depart="15.25" departLane="best" from="28216528#1" to="28090764#10"/>
    <trip id="veh10" type="veh_passenger" depart="16.94" departLane="best" from="-414022750#6" to="-28090763#2"/>
    <trip id="veh11" type="veh_passenger" depart="18.64" departLane="best" from="414220173#8" to="-414217704#1"/>
    <trip id="veh12" type="veh_passenger" depart="20.33" departLane="best" from="-28090682#9" to="28089643#6"/>
    <trip id="veh13" type="veh_passenger" depart="22.02" departLane="best" from="-28216665#5" to="28036995#8"/>
    <trip id="veh14" type="veh_passenger" depart="23.72" departLane="best" from="28216528#3" to="28090917#1"/>
    <trip id="veh15" type="veh_passenger" depart="25.41" departLane="best" departSpeed="max" from="28036991#0" to="668520185"/>
    <trip id="veh16" type="veh_passenger" depart="27.11" departLane="best" from="-414464257#2" to="28036995#17"/>
    <trip id="veh17" type="veh_passenger" depart="28.80" departLane="best" from="28216535#0" to="-28089638#1"/>
    <trip id="veh18" type="veh_passenger" depart="30.50" departLane="best" from="28216996#1" to="28036995#29"/>
    <trip id="veh19" type="veh_passenger" depart="32.19" departLane="best" from="28090682#7" to="169149760#0"/>
    <trip id="veh20" type="veh_passenger" depart="33.88" departLane="best" from="28216537#2" to="-28235535#1"/>
    <trip id="veh21" type="veh_passenger" depart="35.58" departLane="best" from="28090674#0" to="-28216534#1"/>
    <trip id="veh22" type="veh_passenger" depart="37.27" departLane="best" from="-28090683#3" to="-28218052#0"/>
    <trip id="veh23" type="veh_passenger" depart="38.97" departLane="best" from="28036995#3" to="-414464257#2"/>
    <trip id="veh24" type="veh_passenger" depart="40.66" departLane="best" departSpeed="max" from="-414464256#18" to="-28094179#0"/>
    <trip id="veh25" type="veh_passenger" depart="42.36" departLane="best" from="-28218047#0" to="414220173#3"/>
    <trip id="veh27" type="veh_passenger" depart="45.74" departLane="best" from="-28090918#3" to="-28090917#0"/>
    <trip id="veh28" type="veh_passenger" depart="47.44" departLane="best" departSpeed="max" from="-28090916#8" to="-921507551#0"/>
    <trip id="veh29" type="veh_passenger" depart="49.13" departLane="best" from="871364726#3" to="28090674#0"/>
    <trip id="veh31" type="veh_passenger" depart="52.52" departLane="best" from="28216537#6" to="28216534#2"/>
    <trip id="veh32" type="veh_passenger" depart="54.21" departLane="best" from="28216537#4" to="-1193665112"/>
    <trip id="veh33" type="veh_passenger" depart="55.91" departLane="best" from="-364251310#4" to="-28216996#0"/>
    <trip id="veh34" type="veh_passenger" depart="57.60" departLane="best" from="-28216531#8" to="414220173#8"/>
    <trip id="veh35" type="veh_passenger" depart="59.30" departLane="best" departSpeed="max" from="28228986#0" to="-413994738#1"/>
    <trip id="veh37" type="veh_passenger" depart="62.69" departLane="best" from="404077793#9" to="169149760#8"/>
    <trip id="veh38" type="veh_passenger" depart="64.38" departLane="best" departSpeed="max" from="-28218046#1" to="-28216536"/>
    <trip id="veh39" type="veh_passenger" depart="66.07" departLane="best" from="28036991#2" to="-28216675#1"/>
    <trip id="veh40" type="veh_passenger" depart="67.77" departLane="best" departSpeed="max" from="28036995#0" to="414017355"/>
    <trip id="veh41" type="veh_passenger" depart="69.46" departLane="best" departSpeed="max" from="-921507551#1" to="-28216529#1"/>
    <trip id="veh42" type="veh_passenger" depart="71.16" departLane="best" departSpeed="max" from="921507551#0" to="28036991#17"/>
    <trip id="veh43" type="veh_passenger" depart="72.85" departLane="best" from="-28090682#6" to="169149760#10"/>
    <trip id="veh44" type="veh_passenger" depart="74.54" departLane="best" from="-28090685#14" to="28089643#3"/>
    <trip id="veh45" type="veh_passenger" depart="76.24" departLane="best" from="28094168" to="169149147#1"/>
    <trip id="veh46" type="veh_passenger" depart="77.93" departLane="best" from="28089638#2" to="-921507551#0"/>
    <trip id="veh47" type="veh_passenger" depart="79.63" departLane="best" departSpeed="max" from="921507550" to="28036991#7-AddedOffRampEdge"/>
    <trip id="veh48" type="veh_passenger" depart="81.32" departLane="best" from="414464256#12" to="28235533"/>
    <trip id="veh49" type="veh_passenger" depart="83.02" departLane="best" departSpeed="max" from="-1033729555" to="28090916#0"/>
    <trip id="veh50" type="veh_passenger" depart="84.71" departLane="best" from="-28089643#4" to="28036995#10"/>
    <trip id="veh51" type="veh_passenger" depart="86.40" departLane="best" from="-28218047#0" to="28090674#2"/>
    <trip id="veh52" type="veh_passenger" depart="88.10" departLane="best" from="-28090685#17" to="169149236#12"/>
    <trip id="veh53" type="veh_passenger" depart="89.79" departLane="best" from="158228205#4" to="-414229478#6"/>
    <trip id="veh54" type="veh_passenger" depart="91.49" departLane="best" departSpeed="max" from="28228986#0" to="-28216675#2"/>
    <trip id="veh55" type="veh_passenger" depart="93.18" departLane="best" from="224117440#15" to="-28090913#3"/>
    <trip id="veh56" type="veh_passenger" depart="94.88" departLane="best" from="404077793#6" to="28242575"/>
    <trip id="veh57" type="veh_passenger" depart="96.57" departLane="best" from="-28235537#1" to="28090670#1"/>
    <trip id="veh58" type="veh_passenger" depart="98.26" departLane="best" from="28036995#17" to="28090697#3"/>
    <trip id="veh59" type="veh_passenger" depart="99.96" departLane="best" from="28090918#0" to="28036991#8"/>
    <trip id="veh60" type="veh_passenger" depart="101.65" departLane="best" departSpeed="max" from="-1033692052" to="-414022750#3"/>
    <trip id="veh61" type="veh_passenger" depart="103.35" departLane="best" departSpeed="max" from="-1216676460" to="-414218170#3"/>
    <trip id="veh62" type="veh_passenger" depart="105.04" departLane="best" from="28235532#1" to="28218046#0"/>
    <trip id="veh64" type="veh_passenger" depart="108.43" departLane="best" from="28235532#0" to="414220174#4"/>
    <trip id="veh66" type="veh_passenger" depart="111.82" departLane="best" from="28090913#3" to="-28090683#6"/>
    <trip id="veh67" type="veh_passenger" depart="113.51" departLane="best" from="169149236#7" to="28036995#16"/>
    <trip id="veh68" type="veh_passenger" depart="115.21" departLane="best" departSpeed="max" from="-28218046#1" to="28242575"/>
    <trip id="veh69" type="veh_passenger" depart="116.90" departLane="best" departSpeed="max" from="1033743482" to="-28094179#0"/>
    <trip id="veh70" type="veh_passenger" depart="118.59" departLane="best" departSpeed="max" from="28036991#0" to="28090917#1"/>
    <trip id="veh71" type="veh_passenger" depart="120.29" departLane="best" from="-28216529#5" to="-404072554#1"/>
    <trip id="veh72" type="veh_passenger" depart="121.98" departLane="best" departSpeed="max" from="921507550" to="28090682#3"/>
    <trip id="veh73" type="veh_passenger" depart="123.68" departLane="best" from="1118446620#2" to="28036991#3"/>
    <trip id="veh74" type="veh_passenger" depart="125.37" departLane="best" from="-28090693#4" to="-28216530#2"/>
    <trip id="veh75" type="veh_passenger" depart="127.07" departLane="best" from="-414022750#5" to="28036995#32"/>
    <trip id="veh76" type="veh_passenger" depart="128.76" departLane="best" from="28216537#5" to="-28216529#3"/>
    <trip id="veh77" type="veh_passenger" depart="130.45" departLane="best" from="28216537#4" to="414017358#7"/>
    <trip id="veh78" type="veh_passenger" depart="132.15" departLane="best" from="-1193475402" to="-224117440#8"/>
    <trip id="veh79" type="veh_passenger" depart="133.84" departLane="best" from="-28216667" to="28090685#11"/>
    <trip id="veh80" type="veh_passenger" depart="135.54" departLane="best" from="-28216534#3" to="-28090685#10"/>
    <trip id="veh81" type="veh_passenger" depart="137.23" departLane="best" from="414022750#8" to="28036995#26"/>
    <trip id="veh82" type="veh_passenger" depart="138.92" departLane="best" from="169149236#5" to="28216535#4"/>
    <trip id="veh83" type="veh_passenger" depart="140.62" departLane="best" from="28216528#3" to="-28090917#1"/>
    <trip id="veh84" type="veh_passenger" depart="142.31" departLane="best" from="-28090683#13" to="169149236#1"/>
    <trip id="veh85" type="veh_passenger" depart="144.01" departLane="best" departSpeed="max" from="1033743482" to="-224117440#0"/>
    <trip id="veh86" type="veh_passenger" depart="145.70" departLane="best" from="28090685#8" to="28090685#2"/>
    <trip id="veh87" type="veh_passenger" depart="147.40" departLane="best" from="676571308" to="28089643#8"/>
    <trip id="veh88" type="veh_passenger" depart="149.09" departLane="best" departSpeed="max" from="-921507554" to="-414218170#3"/>
    <trip id="veh89" type="veh_passenger" depart="150.78" departLane="best" from="28216996#1" to="-28216537#2"/>
    <trip id="veh90" type="veh_passenger" depart="152.48" departLane="best" from="-28094177" to="169149236#6"/>
    <trip id="veh91" type="veh_passenger" depart="154.17" departLane="best" departSpeed="max" from="1033743481" to="-28218052#0"/>
    <trip id="veh92" type="veh_passenger" depart="155.87" departLane="best" departSpeed="max" from="-28216868" to="414022751#1"/>
    <trip id="veh93" type="veh_passenger" depart="157.56" departLane="best" departSpeed="max" from="1193665111" to="-28235534#0"/>
    <trip id="veh94" type="veh_passenger" depart="159.25" departLane="best" from="28036991#11" to="169149760#5"/>
    <trip id="veh95" type="veh_passenger" depart="160.95" departLane="best" departSpeed="max" from="921507551#0" to="28218047#1"/>
    <trip id="veh96" type="veh_passenger" depart="162.64" departLane="best" from="414464256#1" to="414217704#1"/>
    <trip id="veh97" type="veh_passenger" depart="164.34" departLane="best" from="28216666#0" to="-28090764#6"/>
    <trip id="veh98" type="veh_passenger" depart="166.03" departLane="best" from="169150811" to="-28216528#1"/>
    <trip id="veh99" type="veh_passenger" depart="167.73" departLane="best" departSpeed="max" from="-921507554" to="-224117440#13"/>
    <trip id="veh100" type="veh_passenger" depart="169.42" departLane="best" departSpeed="max" from="-28218046#1" to="28216535#3"/>
    <trip id="veh101" type="veh_passenger" depart="171.11" departLane="best" from="158228205#5" to="169149147#3"/>
    <trip id="veh102" type="veh_passenger" depart="172.81" departLane="best" from="414220173#8" to="921507554"/>
    <trip id="veh104" type="veh_passenger" depart="176.20" departLane="best" from="-28090913#7" to="-28242574"/>
    <trip id="veh106" type="veh_passenger" depart="179.59" departLane="best" departSpeed="max" from="28036991#0" to="28094177"/>
    <trip id="veh107" type="veh_passenger" depart="181.28" departLane="best" from="-224117440#4" to="28036995#31"/>
    <trip id="veh108" type="veh_passenger" depart="182.97" departLane="best" from="224117440#19" to="28228987"/>
    <trip id="veh109" type="veh_passenger" depart="184.67" departLane="best" from="28090915#1" to="414464256#17"/>
    <trip id="veh110" type="veh_passenger" depart="186.36" departLane="best" from="28036995#10" to="-28090685#5"/>
    <trip id="veh111" type="veh_passenger" depart="188.06" departLane="best" from="-28216665#5" to="-28090683#10"/>
    <trip id="veh112" type="veh_passenger" depart="189.75" departLane="best" departSpeed="max" from="28242574" to="-28216536"/>
    <trip id="veh113" type="veh_passenger" depart="191.44" departLane="best" from="28036995#10" to="28089641#0"/>
    <trip id="veh114" type="veh_passenger" depart="193.14" departLane="best" departSpeed="max" from="1033743480" to="28036995#31"/>
    <trip id="veh116" type="veh_passenger" depart="196.53" departLane="best" from="-28216530#1" to="28090913#5"/>
    <trip id="veh117" type="veh_passenger" depart="198.22" departLane="best" from="28216670#0" to="1033729555"/>
    <trip id="veh118" type="veh_passenger" depart="199.92" departLane="best" from="-28089638#2" to="-28242584#0"/>
    <trip id="veh119" type="veh_passenger" depart="201.61" departLane="best" from="-364251310#6" to="28216526#1"/>
    <trip id="veh120" type="veh_passenger" depart="203.30" departLane="best" from="-28089643#4" to="169149760#7"/>
    <trip id="veh121" type="veh_passenger" depart="205.00" departLane="best" from="28089643#5" to="-28216528#0"/>
    <trip id="veh122" type="veh_passenger" depart="206.69" departLane="best" departSpeed="max" from="-28218046#1" to="414220173#0"/>
    <trip id="veh123" type="veh_passenger" depart="208.39" departLane="best" from="28235534#1" to="364251310#0"/>
    <trip id="veh124" type="veh_passenger" depart="210.08" departLane="best" departSpeed="max" from="-414464256#18" to="-28090763#5"/>
    <trip id="veh125" type="veh_passenger" depart="211.78" departLane="best" from="28216535#3" to="28090764#8"/>
    <trip id="veh126" type="veh_passenger" depart="213.47" departLane="best" from="28036995#19" to="921507549"/>
    <trip id="veh128" type="veh_passenger" depart="216.86" departLane="best" from="28216530#2" to="-28242574"/>
    <trip id="veh130" type="veh_passenger" depart="220.25" departLane="best" from="-28090763#9" to="-28090682#5"/>
    <trip id="veh131" type="veh_passenger" depart="221.94" departLane="best" from="-28090685#10" to="28036995#18"/>
    <trip id="veh133" type="veh_passenger" depart="225.33" departLane="best" from="28090683#9" to="28094168"/>
    <trip id="veh134" type="veh_passenger" depart="227.02" departLane="best" from="28036995#29" to="-28216675#3"/>
    <trip id="veh135" type="veh_passenger" depart="228.72" departLane="best" departSpeed="max" from="169256156#0" to="414017358#7"/>
    <trip id="veh136" type="veh_passenger" depart="230.41" departLane="best" from="28216665#3" to="28089643#3"/>
    <trip id="veh137" type="veh_passenger" depart="232.11" departLane="best" departSpeed="max" from="1033743482" to="-28218050"/>
    <trip id="veh141" type="veh_passenger" depart="238.88" departLane="best" from="28089643#6" to="-364251310#2"/>
    <trip id="veh142" type="veh_passenger" depart="240.58" departLane="best" from="-404072554#1" to="28036995#14"/>
    <trip id="veh143" type="veh_passenger" depart="242.27" departLane="best" from="-28216535#4" to="28036995#31"/>
    <trip id="veh144" type="veh_passenger" depart="243.97" departLane="best" from="-28090765#7" to="-28090683#5"/>
    <trip id="veh146" type="veh_passenger" depart="247.35" departLane="best" from="28094178#0" to="28235533"/>
    <trip id="veh147" type="veh_passenger" depart="249.05" departLane="best" from="364251310#3" to="-28094179#0"/>
    <trip id="veh148" type="veh_passenger" depart="250.74" departLane="best" departSpeed="max" from="-28216868" to="-28090671"/>
    <trip id="veh149" type="veh_passenger" depart="252.44" departLane="best" from="-28090918#2" to="-364251310#4"/>
    <trip id="veh150" type="veh_passenger" depart="254.13" departLane="best" departSpeed="max" from="1032886503" to="28089641#1"/>
    <trip id="veh151" type="veh_passenger" depart="255.82" departLane="best" from="-28090913#6" to="-414218170#4"/>
    <trip id="veh152" type="veh_passenger" depart="257.52" departLane="best" departSpeed="max" from="28218043" to="676571307"/>
    <trip id="veh153" type="veh_passenger" depart="259.21" departLane="best" from="28216528#8" to="364251310#12"/>
    <trip id="veh154" type="veh_passenger" depart="260.91" departLane="best" from="158228205#4" to="-28090918#8"/>
    <trip id="veh155" type="veh_passenger" depart="262.60" departLane="best" from="-414022750#0" to="414218170#6"/>
    <trip id="veh156" type="veh_passenger" depart="264.30" departLane="best" from="28216526#0" to="28235535#2"/>
    <trip id="veh157" type="veh_passenger" depart="265.99" departLane="best" from="28216528#8" to="28216871#4"/>
    <trip id="veh158" type="veh_passenger" depart="267.68" departLane="best" from="-28094165" to="-28090677#2"/>
    <trip id="veh159" type="veh_passenger" depart="269.38" departLane="best" departSpeed="max" from="28218052#0" to="28228990"/>
    <trip id="veh160" type="veh_passenger" depart="271.07" departLane="best" from="28216535#5" to="28216868"/>
    <trip id="veh161" type="veh_passenger" depart="272.77" departLane="best" from="-169149147#4" to="-364251310#13"/>
    <trip id="veh162" type="veh_passenger" depart="274.46" departLane="best" from="28090674#1" to="-28216531#2"/>
    <trip id="veh163" type="veh_passenger" depart="276.15" departLane="best" from="158228205#2" to="-28090918#2"/>
    <trip id="veh164" type="veh_passenger" depart="277.85" departLane="best" departSpeed="max" from="-414017358#8" to="28235535#2"/>
    <trip id="veh165" type="veh_passenger" depart="279.54" departLane="best" from="-414229478#4" to="-28218052#0"/>
    <trip id="veh167" type="veh_passenger" depart="282.93" departLane="best" from="-414464257#1" to="28036995#10"/>
    <trip id="veh168" type="veh_passenger" depart="284.63" departLane="best" from="414216942#1" to="-28090682#5"/>
    <trip id="veh169" type="veh_passenger" depart="286.32" departLane="best" from="414229477#0" to="-28216871#1"/>
    <trip id="veh170" type="veh_passenger" depart="288.01" departLane="best" from="-28090685#12" to="169149236#12"/>
    <trip id="veh171" type="veh_passenger" depart="289.71" departLane="best" from="-28090685#7" to="-413994738#0"/>
    <trip id="veh172" type="veh_passenger" depart="291.40" departLane="best" from="28036995#16" to="28036991#17"/>
    <trip id="veh173" type="veh_passenger" depart="293.10" departLane="best" departSpeed="max" from="-676571307" to="28036995#29"/>
    <trip id="veh174" type="veh_passenger" depart="294.79" departLane="best" departSpeed="max" from="-28216871#6" to="28090765#5"/>
    <trip id="veh175" type="veh_passenger" depart="296.49" departLane="best" departSpeed="max" from="28036991#0" to="28090915#0"/>
    <trip id="veh176" type="veh_passenger" depart="298.18" departLane="best" from="28090763#1" to="28090685#14"/>
    <trip id="veh178" type="veh_passenger" depart="301.57" departLane="best" from="-364251310#14" to="28218054#1"/>
    <trip id="veh179" type="veh_passenger" depart="303.26" departLane="best" from="-28090685#10" to="-28242584#0"/>
    <trip id="veh181" type="veh_passenger" depart="306.65" departLane="best" departSpeed="max" from="-921507554" to="-28235542"/>
    <trip id="veh182" type="veh_passenger" depart="308.34" departLane="best" from="-414217704#0" to="28090685#8"/>
    <trip id="veh184" type="veh_passenger" depart="311.73" departLane="best" departSpeed="max" from="-1033692052" to="-28235533"/>
    <trip id="veh186" type="veh_passenger" depart="315.12" departLane="best" departSpeed="max" from="1193665111" to="-28216528#1"/>
    <trip id="veh187" type="veh_passenger" depart="316.82" departLane="best" from="169149236#5" to="414017358#1"/>
    <trip id="veh188" type="veh_passenger" depart="318.51" departLane="best" from="28094178#0" to="-28090765#1"/>
    <trip id="veh189" type="veh_passenger" depart="320.20" departLane="best" from="-28090677#5" to="28036991#2"/>
    <trip id="veh190" type="veh_passenger" depart="321.90" departLane="best" from="28036995#29" to="-414216942#1"/>
    <trip id="veh191" type="veh_passenger" depart="323.59" departLane="best" from="28216531#0" to="28216526#0"/>
    <trip id="veh192" type="veh_passenger" depart="325.29" departLane="best" from="28089641#1" to="-28216530#2"/>
    <trip id="veh193" type="veh_passenger" depart="326.98" departLane="best" from="-28216675#1" to="224117440#2"/>
    <trip id="veh194" type="veh_passenger" depart="328.68" departLane="best" departSpeed="max" from="1033743479" to="28089643#5"/>
    <trip id="veh195" type="veh_passenger" depart="330.37" departLane="best" from="-28216528#2" to="28090763#9"/>
    <trip id="veh198" type="veh_passenger" depart="335.45" departLane="best" from="28090764#2" to="28216531#3"/>
    <trip id="veh199" type="veh_passenger" depart="337.15" departLane="best" from="-28090685#10" to="169149148"/>
    <trip id="veh200" type="veh_passenger" depart="338.84" departLane="best" departSpeed="max" from="-28091234#1" to="414464256#13"/>
    <trip id="veh201" type="veh_passenger" depart="340.53" departLane="best" departSpeed="max" from="-28216868" to="28218054#1"/>
    <trip id="veh202" type="veh_passenger" depart="342.23" departLane="best" from="158228205#8" to="28216666#1"/>
    <trip id="veh204" type="veh_passenger" depart="345.62" departLane="best" from="28036995#11" to="414229478#0"/>
    <trip id="veh206" type="veh_passenger" depart="349.01" departLane="best" from="28090685#1" to="28036991#16"/>
    <trip id="veh207" type="veh_passenger" depart="350.70" departLane="best" from="28216535#1" to="28036995#15"/>
    <trip id="veh208" type="veh_passenger" depart="352.39" departLane="best" from="364251310#13" to="28094167#1"/>
    <trip id="veh209" type="veh_passenger" depart="354.09" departLane="best" from="169149236#6" to="-28216670#0"/>
    <trip id="veh210" type="veh_passenger" depart="355.78" departLane="best" departSpeed="max" from="-28216868" to="28090670#1"/>
    <trip id="veh211" type="veh_passenger" depart="357.48" departLane="best" from="28090913#3" to="28036991#5"/>
    <trip id="veh212" type="veh_passenger" depart="359.17" departLane="best" from="28036995#25" to="-28218047#0"/>
    <trip id="veh213" type="veh_passenger" depart="360.86" departLane="best" from="-28089643#8" to="28235532#0"/>
    <trip id="veh214" type="veh_passenger" depart="362.56" departLane="best" departSpeed="max" from="-28218049" to="414017358#7"/>
    <trip id="veh215" type="veh_passenger" depart="364.25" departLane="best" departSpeed="max" from="28036991#0" to="-28090685#3"/>
    <trip id="veh216" type="veh_passenger" depart="365.95" departLane="best" from="-28216537#7" to="28090763#5"/>
    <trip id="veh217" type="veh_passenger" depart="367.64" departLane="best" from="28090683#0" to="224117440#20"/>
    <trip id="veh218" type="veh_passenger" depart="369.34" departLane="best" departSpeed="max" from="1032886503" to="28036995#13"/>
    <trip id="veh219" type="veh_passenger" depart="371.03" departLane="best" departSpeed="max" from="1033743479" to="-28094177"/>
    <trip id="veh220" type="veh_passenger" depart="372.72" departLane="best" departSpeed="max" from="1033743481" to="414017358#6"/>
    <trip id="veh221" type="veh_passenger" depart="374.42" departLane="best" departSpeed="max" from="28036995#0" to="28090763#8"/>
    <trip id="veh222" type="veh_passenger" depart="376.11" departLane="best" from="28216871#0" to="-28216530#0"/>
    <trip id="veh224" type="veh_passenger" depart="379.50" departLane="best" from="-414218170#5" to="28216526#2"/>
    <trip id="veh225" type="veh_passenger" depart="381.20" departLane="best" from="-28216674" to="-414229478#5"/>
    <trip id="veh226" type="veh_passenger" depart="382.89" departLane="best" departSpeed="max" from="1033743480" to="28094176"/>
    <trip id="veh227" type="veh_passenger" depart="384.58" departLane="best" from="28036991#1" to="28036995#8"/>
    <trip id="veh228" type="veh_passenger" depart="386.28" departLane="best" from="28216535#2" to="-28216529#1"/>
    <trip id="veh229" type="veh_passenger" depart="387.97" departLane="best" departSpeed="max" from="1043108594#0" to="-1193665112"/>
    <trip id="veh230" type="veh_passenger" depart="389.67" departLane="best" from="-414022750#3" to="28090689"/>
    <trip id="veh231" type="veh_passenger" depart="391.36" departLane="best" departSpeed="max" from="-921507555" to="-28090764#4"/>
    <trip id="veh233" type="veh_passenger" depart="394.75" departLane="best" from="28036995#23" to="-1193665111"/>
    <trip id="veh234" type="veh_passenger" depart="396.44" departLane="best" departSpeed="max" from="-921507549" to="28036995#23"/>
    <trip id="veh235" type="veh_passenger" depart="398.14" departLane="best" from="158228205#7" to="-28235533"/>
    <trip id="veh237" type="veh_passenger" depart="401.53" departLane="best" from="224117440#17" to="-921507550"/>
    <trip id="veh238" type="veh_passenger" depart="403.22" departLane="best" from="-28216534#0" to="-414022750#5"/>
    <trip id="veh239" type="veh_passenger" depart="404.91" departLane="best" from="28090765#7" to="-921507550"/>
    <trip id="veh240" type="veh_passenger" depart="406.61" departLane="best" from="28090764#4" to="28218046#1"/>
    <trip id="veh241" type="veh_passenger" depart="408.30" departLane="best" from="-28216871#4" to="-224132036"/>
    <trip id="veh242" type="veh_passenger" depart="410.00" departLane="best" departSpeed="max" from="-1216676460" to="28036995#11"/>
    <trip id="veh243" type="veh_passenger" depart="411.69" departLane="best" departSpeed="max" from="921507551#0" to="-414229478#5"/>
    <trip id="veh244" type="veh_passenger" depart="413.39" departLane="best" from="28036995#8" to="28216535#10"/>
    <trip id="veh246" type="veh_passenger" depart="416.77" departLane="best" from="414220173#2" to="-28094165"/>
    <trip id="veh247" type="veh_passenger" depart="418.47" departLane="best" from="-28090697#1" to="28090685#12"/>
    <trip id="veh248" type="veh_passenger" depart="420.16" departLane="best" from="28036991#4" to="-28216528#8"/>
    <trip id="veh249" type="veh_passenger" depart="421.86" departLane="best" from="28090682#1" to="28216530#2"/>
    <trip id="veh250" type="veh_passenger" depart="423.55" departLane="best" from="-28090917#1" to="28037111#1"/>
    <trip id="veh251" type="veh_passenger" depart="425.24" departLane="best" from="28090763#9" to="-28090682#4"/>
    <trip id="veh252" type="veh_passenger" depart="426.94" departLane="best" from="28216531#1" to="414464256#2"/>
    <trip id="veh253" type="veh_passenger" depart="428.63" departLane="best" from="-28090685#12" to="-1193665111"/>
    <trip id="veh254" type="veh_passenger" depart="430.33" departLane="best" from="364251310#11" to="28090685#8"/>
    <trip id="veh255" type="veh_passenger" depart="432.02" departLane="best" from="414220173#8" to="1036697186"/>
    <trip id="veh256" type="veh_passenger" depart="433.72" departLane="best" from="28090683#5" to="-224131616"/>
    <trip id="veh257" type="veh_passenger" depart="435.41" departLane="best" departSpeed="max" from="28090671" to="28089643#3"/>
    <trip id="veh258" type="veh_passenger" depart="437.10" departLane="best" from="28090683#5" to="28216531#6"/>
    <trip id="veh259" type="veh_passenger" depart="438.80" departLane="best" from="-28090693#5" to="921403160"/>
    <trip id="veh260" type="veh_passenger" depart="440.49" departLane="best" from="28090918#6" to="-414229478#1"/>
    <trip id="veh262" type="veh_passenger" depart="443.88" departLane="best" from="28216666#1" to="28216871#6"/>
    <trip id="veh263" type="veh_passenger" depart="445.58" departLane="best" from="-28090685#0" to="414464256#17"/>
    <trip id="veh264" type="veh_passenger" depart="447.27" departLane="best" from="28036995#3" to="28218045"/>