<?xml version="1.0" encoding="UTF-8"?>

<!-- generated on 2025-04-21 21:42:20 by Eclipse SUMO netconvert Version 1.22.0
<netconvertConfiguration xmlns:xsi="http://www.w3.org/2001/XMLSchema-instance" xsi:noNamespaceSchemaLocation="http://sumo.dlr.de/xsd/netconvertConfiguration.xsd">

    <input>
        <type-files value="${SUMO_HOME}\data\typemap\osmNetconvert.typ.xml"/>
        <osm-files value="osm_bbox.osm.xml.gz"/>
    </input>

    <output>
        <output-file value="osm.net.xml.gz"/>
        <output.street-names value="true"/>
        <output.original-names value="true"/>
    </output>

    <projection>
        <proj.utm value="true"/>
    </projection>

    <processing>
        <geometry.remove value="true"/>
        <roundabouts.guess value="true"/>
    </processing>

    <tls_building>
        <tls.discard-simple value="true"/>
        <tls.join value="true"/>
        <tls.guess-signals value="true"/>
        <tls.default-type value="actuated"/>
    </tls_building>

    <ramp_guessing>
        <ramps.guess value="true"/>
    </ramp_guessing>

    <junctions>
        <junctions.join value="true"/>
        <junctions.corner-detail value="5"/>
    </junctions>

</netconvertConfiguration>
-->

<net version="1.20" junctionCornerDetail="5" limitTurnSpeed="5.50" xmlns:xsi="http://www.w3.org/2001/XMLSchema-instance" xsi:noNamespaceSchemaLocation="http://sumo.dlr.de/xsd/net_file.xsd">

    <location netOffset="-407312.70,-2043935.97" convBoundary="0.00,0.00,2352.53,1312.49" origBoundary="-69.877956,18.483831,-69.855706,18.495708" projParameter="+proj=utm +zone=19 +ellps=WGS84 +datum=WGS84 +units=m +no_defs"/>

    <type id="highway.footway" priority="1" numLanes="1" speed="2.78" allow="pedestrian" oneway="1" width="2.00"/>
    <type id="highway.motorway" priority="14" numLanes="2" speed="39.44" allow="private emergency authority army vip passenger hov taxi bus coach delivery truck trailer motorcycle evehicle custom1 custom2" oneway="1"/>
    <type id="highway.motorway_link" priority="9" numLanes="1" speed="22.22" allow="private emergency authority army vip passenger hov taxi bus coach delivery truck trailer motorcycle evehicle custom1 custom2" oneway="1"/>
    <type id="highway.primary" priority="12" numLanes="2" speed="27.78" disallow="tram rail_urban rail rail_electric rail_fast ship container cable_car subway aircraft wheelchair scooter drone" oneway="0"/>
    <type id="highway.primary_link" priority="7" numLanes="1" speed="22.22" disallow="tram rail_urban rail rail_electric rail_fast ship container cable_car subway aircraft wheelchair scooter drone" oneway="0"/>
    <type id="highway.residential" priority="3" numLanes="1" speed="13.89" disallow="tram rail_urban rail rail_electric rail_fast ship container cable_car subway aircraft wheelchair scooter drone" oneway="0"/>
    <type id="highway.secondary" priority="11" numLanes="1" speed="27.78" disallow="tram rail_urban rail rail_electric rail_fast ship container cable_car subway aircraft wheelchair scooter drone" oneway="0"/>
    <type id="highway.service" priority="1" numLanes="1" speed="5.56" allow="pedestrian delivery bicycle" oneway="0"/>
    <type id="highway.steps" priority="1" numLanes="1" speed="1.39" allow="pedestrian" oneway="1" width="2.00"/>
    <type id="highway.tertiary" priority="10" numLanes="1" speed="22.22" disallow="tram rail_urban rail rail_electric rail_fast ship container cable_car subway aircraft wheelchair scooter drone" oneway="0"/>

    <edge id=":1043108593#1-AddedOnRampNode_0" function="internal">
        <lane id=":1043108593#1-AddedOnRampNode_0_0" index="0" disallow="tram rail_urban rail rail_electric rail_fast ship container cable_car subway aircraft wheelchair scooter drone" speed="27.78" length="8.00" shape="26.77,64.76 25.03,56.96"/>
        <lane id=":1043108593#1-AddedOnRampNode_0_1" index="1" disallow="tram rail_urban rail rail_electric rail_fast ship container cable_car subway aircraft wheelchair scooter drone" speed="27.78" length="8.00" shape="29.89,64.07 28.15,56.26"/>
    </edge>
    <edge id=":1043465854-AddedOnRampNode_0" function="internal">
        <lane id=":1043465854-AddedOnRampNode_0_0" index="0" allow="private emergency authority army vip passenger hov taxi bus coach delivery truck trailer motorcycle evehicle custom1 custom2" speed="39.44" length="8.00" shape="347.68,198.85 355.65,198.12"/>
        <lane id=":1043465854-AddedOnRampNode_0_1" index="1" allow="private emergency authority army vip passenger hov taxi bus coach delivery truck trailer motorcycle evehicle custom1 custom2" speed="39.44" length="8.00" shape="347.97,202.04 355.94,201.30"/>
    </edge>
    <edge id=":11045420106_0" function="internal">
        <lane id=":11045420106_0_0" index="0" allow="pedestrian delivery bicycle" speed="3.65" length="4.67" shape="100.09,1302.64 100.27,1304.07 99.92,1304.90 99.06,1305.12 97.67,1304.74"/>
    </edge>
    <edge id=":11045420107_0" function="internal">
        <lane id=":11045420107_0_0" index="0" allow="pedestrian delivery bicycle" speed="3.65" length="4.67" shape="39.60,1237.72 39.42,1236.29 39.76,1235.46 40.63,1235.24 42.02,1235.62"/>
    </edge>
    <edge id=":11057922126_0" function="internal">
        <lane id=":11057922126_0_0" index="0" allow="pedestrian delivery bicycle" speed="3.65" length="4.67" shape="1318.59,275.32 1319.34,274.09 1320.12,273.66 1320.94,274.03 1321.78,275.20"/>
    </edge>
    <edge id=":11057922127_0" function="internal">
        <lane id=":11057922127_0_0" index="0" disallow="tram rail_urban rail rail_electric rail_fast ship container cable_car subway aircraft wheelchair scooter drone" speed="13.89" length="9.45" shape="1327.96,360.57 1318.55,361.37"/>
    </edge>
    <edge id=":11057922127_1" function="internal">
        <lane id=":11057922127_1_0" index="0" allow="pedestrian delivery bicycle" speed="6.77" length="3.38" shape="1327.96,360.57 1324.96,360.40 1324.63,360.22"/>
    </edge>
    <edge id=":11057922127_7" function="internal">
        <lane id=":11057922127_7_0" index="0" allow="pedestrian delivery bicycle" speed="6.77" length="7.40" shape="1324.63,360.22 1322.85,359.28 1321.64,357.23 1321.32,354.24"/>
    </edge>
    <edge id=":11057922127_2" function="internal">
        <lane id=":11057922127_2_0" index="0" allow="pedestrian delivery bicycle" speed="4.92" length="5.15" shape="1324.52,354.36 1324.67,355.79 1325.25,356.77 1326.26,357.30 1327.69,357.39"/>
    </edge>
    <edge id=":11057922127_3" function="internal">
        <lane id=":11057922127_3_0" index="0" allow="pedestrian delivery bicycle" speed="7.20" length="10.24" shape="1324.52,354.36 1324.06,357.25 1322.91,359.38 1321.07,360.75 1318.55,361.37"/>
    </edge>
    <edge id=":11057922127_4" function="internal">
        <lane id=":11057922127_4_0" index="0" allow="pedestrian delivery bicycle" speed="3.65" length="4.67" shape="1324.52,354.36 1323.68,355.53 1322.86,355.90 1322.08,355.47 1321.32,354.24"/>
    </edge>
    <edge id=":11057922127_5" function="internal">
        <lane id=":11057922127_5_0" index="0" allow="pedestrian delivery bicycle" speed="5.47" length="5.52" shape="1318.28,358.18 1319.56,357.84 1320.49,357.07 1321.08,355.87 1321.32,354.24"/>
    </edge>
    <edge id=":11057922127_6" function="internal">
        <lane id=":11057922127_6_0" index="0" disallow="tram rail_urban rail rail_electric rail_fast ship container cable_car subway aircraft wheelchair scooter drone" speed="13.89" length="9.45" shape="1318.28,358.18 1327.69,357.39"/>
    </edge>
    <edge id=":11057922131_0" function="internal">
        <lane id=":11057922131_0_0" index="0" allow="pedestrian delivery bicycle" speed="3.65" length="4.67" shape="1243.83,323.99 1245.10,324.69 1245.56,325.45 1245.23,326.28 1244.10,327.18"/>
    </edge>
    <edge id=":11057922132_0" function="internal">
        <lane id=":11057922132_0_0" index="0" allow="pedestrian delivery bicycle" speed="3.65" length="4.67" shape="1386.77,289.59 1388.01,290.33 1388.44,291.12 1388.07,291.93 1386.91,292.78"/>
    </edge>
    <edge id=":11057922136_0" function="internal">
        <lane id=":11057922136_0_0" index="0" allow="pedestrian delivery bicycle" speed="5.56" length="9.40" shape="1342.02,299.41 1341.24,290.05"/>
    </edge>
    <edge id=":11057922136_1" function="internal">
        <lane id=":11057922136_1_0" index="0" allow="pedestrian delivery bicycle" speed="5.56" length="10.20" shape="1342.02,299.41 1342.18,296.62 1343.20,294.56 1345.08,293.22 1347.81,292.62"/>
    </edge>
    <edge id=":11057922136_2" function="internal">
        <lane id=":11057922136_2_0" index="0" allow="pedestrian delivery bicycle" speed="3.65" length="4.67" shape="1342.02,299.41 1342.72,298.15 1343.48,297.68 1344.31,298.02 1345.21,299.15"/>
    </edge>
    <edge id=":11057922136_3" function="internal">
        <lane id=":11057922136_3_0" index="0" allow="pedestrian delivery bicycle" speed="5.03" length="5.01" shape="1348.05,295.81 1346.71,296.10 1345.79,296.76 1345.29,297.77 1345.21,299.15"/>
    </edge>
    <edge id=":11057922136_4" function="internal">
        <lane id=":11057922136_4_0" index="0" allow="pedestrian delivery bicycle" speed="5.56" length="10.16" shape="1348.05,295.81 1345.27,295.63 1343.20,294.61 1341.86,292.75 1341.24,290.05"/>
    </edge>
    <edge id=":11057922136_5" function="internal">
        <lane id=":11057922136_5_0" index="0" allow="pedestrian delivery bicycle" speed="3.65" length="4.67" shape="1348.05,295.81 1346.80,295.10 1346.34,294.33 1346.68,293.51 1347.81,292.62"/>
    </edge>
    <edge id=":11057922136_6" function="internal">
        <lane id=":11057922136_6_0" index="0" allow="pedestrian delivery bicycle" speed="5.07" length="5.03" shape="1344.42,289.78 1344.73,291.11 1345.40,292.03 1346.43,292.53 1347.81,292.62"/>
    </edge>
    <edge id=":11057922136_7" function="internal">
        <lane id=":11057922136_7_0" index="0" allow="pedestrian delivery bicycle" speed="5.56" length="9.40" shape="1344.42,289.78 1345.21,299.15"/>
    </edge>
    <edge id=":11057922136_8" function="internal">
        <lane id=":11057922136_8_0" index="0" allow="pedestrian delivery bicycle" speed="3.65" length="4.67" shape="1344.42,289.78 1343.73,291.04 1342.96,291.51 1342.13,291.17 1341.24,290.05"/>
    </edge>
    <edge id=":11057922137_0" function="internal">
        <lane id=":11057922137_0_0" index="0" allow="pedestrian delivery bicycle" speed="3.65" length="4.67" shape="1339.67,271.34 1340.36,270.08 1341.13,269.61 1341.96,269.95 1342.86,271.07"/>
    </edge>
    <edge id=":11057922138_0" function="internal">
        <lane id=":11057922138_0_0" index="0" disallow="tram rail_urban rail rail_electric rail_fast ship container cable_car subway aircraft wheelchair scooter drone" speed="13.89" length="9.40" shape="1353.30,358.43 1343.93,359.22"/>
    </edge>
    <edge id=":11057922138_1" function="internal">
        <lane id=":11057922138_1_0" index="0" allow="pedestrian delivery bicycle" speed="6.86" length="3.26" shape="1353.30,358.43 1350.52,358.27 1350.09,358.06"/>
    </edge>
    <edge id=":11057922138_7" function="internal">
        <lane id=":11057922138_7_0" index="0" allow="pedestrian delivery bicycle" speed="6.86" length="6.90" shape="1350.09,358.06 1348.46,357.26 1347.12,355.39 1346.49,352.68"/>
    </edge>
    <edge id=":11057922138_2" function="internal">
        <lane id=":11057922138_2_0" index="0" allow="pedestrian delivery bicycle" speed="5.04" length="5.00" shape="1349.68,352.41 1349.99,353.75 1350.65,354.66 1351.66,355.16 1353.03,355.24"/>
    </edge>
    <edge id=":11057922138_3" function="internal">
        <lane id=":11057922138_3_0" index="0" allow="pedestrian delivery bicycle" speed="6.86" length="10.16" shape="1349.68,352.41 1349.52,355.19 1348.51,357.25 1346.65,358.60 1343.93,359.22"/>
    </edge>
    <edge id=":11057922138_4" function="internal">
        <lane id=":11057922138_4_0" index="0" allow="pedestrian delivery bicycle" speed="3.65" length="4.67" shape="1349.68,352.41 1348.98,353.67 1348.22,354.14 1347.39,353.81 1346.49,352.68"/>
    </edge>
    <edge id=":11057922138_5" function="internal">
        <lane id=":11057922138_5_0" index="0" allow="pedestrian delivery bicycle" speed="5.04" length="5.00" shape="1343.66,356.03 1345.00,355.72 1345.91,355.06 1346.41,354.05 1346.49,352.68"/>
    </edge>
    <edge id=":11057922138_6" function="internal">
        <lane id=":11057922138_6_0" index="0" disallow="tram rail_urban rail rail_electric rail_fast ship container cable_car subway aircraft wheelchair scooter drone" speed="13.89" length="9.40" shape="1343.66,356.03 1353.03,355.24"/>
    </edge>
    <edge id=":11057922139_0" function="internal">
        <lane id=":11057922139_0_0" index="0" allow="pedestrian delivery bicycle" speed="3.65" length="4.67" shape="1288.03,325.11 1287.33,326.37 1286.57,326.83 1285.74,326.50 1284.84,325.37"/>
    </edge>
    <edge id=":11057922140_0" function="internal">
        <lane id=":11057922140_0_0" index="0" allow="pedestrian delivery bicycle" speed="4.96" length="5.10" shape="1278.80,249.73 1278.59,248.34 1277.98,247.38 1276.96,246.87 1275.55,246.79"/>
    </edge>
    <edge id=":11057922140_1" function="internal">
        <lane id=":11057922140_1_0" index="0" allow="pedestrian delivery bicycle" speed="7.08" length="10.20" shape="1278.80,249.73 1279.15,246.88 1280.24,244.76 1282.07,243.38 1284.64,242.74"/>
    </edge>
    <edge id=":11057922140_2" function="internal">
        <lane id=":11057922140_2_0" index="0" allow="pedestrian delivery bicycle" speed="3.65" length="4.67" shape="1278.80,249.73 1279.59,248.53 1280.39,248.12 1281.19,248.51 1282.00,249.71"/>
    </edge>
    <edge id=":11057922140_3" function="internal">
        <lane id=":11057922140_3_0" index="0" allow="pedestrian delivery bicycle" speed="5.33" length="5.35" shape="1284.93,245.93 1283.64,246.27 1282.72,247.01 1282.18,248.16 1282.00,249.71"/>
    </edge>
    <edge id=":11057922140_4" function="internal">
        <lane id=":11057922140_4_0" index="0" disallow="tram rail_urban rail rail_electric rail_fast ship container cable_car subway aircraft wheelchair scooter drone" speed="13.89" length="9.42" shape="1284.93,245.93 1275.55,246.79"/>
    </edge>
    <edge id=":11057922140_5" function="internal">
        <lane id=":11057922140_5_0" index="0" disallow="tram rail_urban rail rail_electric rail_fast ship container cable_car subway aircraft wheelchair scooter drone" speed="13.89" length="9.42" shape="1275.26,243.61 1284.64,242.74"/>
    </edge>
    <edge id=":11057922140_6" function="internal">
        <lane id=":11057922140_6_0" index="0" allow="pedestrian delivery bicycle" speed="6.80" length="3.34" shape="1275.26,243.61 1278.19,243.76 1278.55,243.94"/>
    </edge>
    <edge id=":11057922140_7" function="internal">
        <lane id=":11057922140_7_0" index="0" allow="pedestrian delivery bicycle" speed="6.80" length="7.24" shape="1278.55,243.94 1280.29,244.82 1281.56,246.81 1282.00,249.71"/>
    </edge>
    <edge id=":11057922141_0" function="internal">
        <lane id=":11057922141_0_0" index="0" allow="pedestrian delivery bicycle" speed="3.65" length="4.67" shape="1196.69,305.37 1197.28,304.06 1198.00,303.53 1198.86,303.80 1199.84,304.85"/>
    </edge>
    <edge id=":11057922147_0" function="internal">
        <lane id=":11057922147_0_0" index="0" allow="pedestrian delivery bicycle" speed="5.56" length="6.58" shape="1230.71,328.28 1228.76,328.41 1227.38,328.59 1226.16,329.12 1224.67,330.30"/>
    </edge>
    <edge id=":11057922147_1" function="internal">
        <lane id=":11057922147_1_0" index="0" allow="pedestrian delivery bicycle" speed="5.56" length="10.24" shape="1230.71,328.28 1227.90,328.11 1225.84,327.08 1224.52,325.19 1223.94,322.44"/>
    </edge>
    <edge id=":11057922147_2" function="internal">
        <lane id=":11057922147_2_0" index="0" allow="pedestrian delivery bicycle" speed="3.65" length="4.67" shape="1230.71,328.28 1229.45,327.58 1228.99,326.82 1229.32,325.99 1230.45,325.09"/>
    </edge>
    <edge id=":11057922147_3" function="internal">
        <lane id=":11057922147_3_0" index="0" allow="pedestrian delivery bicycle" speed="5.02" length="5.02" shape="1227.13,322.23 1227.41,323.58 1228.06,324.51 1229.07,325.01 1230.45,325.09"/>
    </edge>
    <edge id=":11057922147_4" function="internal">
        <lane id=":11057922147_4_0" index="0" allow="pedestrian delivery bicycle" speed="5.56" length="8.72" shape="1227.13,322.23 1227.11,324.80 1226.70,327.01 1225.88,328.84 1224.67,330.30"/>
    </edge>
    <edge id=":11057922147_5" function="internal">
        <lane id=":11057922147_5_0" index="0" allow="pedestrian delivery bicycle" speed="3.65" length="4.67" shape="1227.13,322.23 1226.41,323.48 1225.64,323.93 1224.81,323.58 1223.94,322.44"/>
    </edge>
    <edge id=":11057922147_6" function="internal">
        <lane id=":11057922147_6_0" index="0" allow="pedestrian delivery bicycle" speed="5.56" length="5.89" shape="1222.47,327.86 1223.22,327.22 1223.72,326.10 1223.96,324.51 1223.94,322.44"/>
    </edge>
    <edge id=":11057922147_7" function="internal">
        <lane id=":11057922147_7_0" index="0" allow="pedestrian delivery bicycle" speed="5.56" length="8.53" shape="1222.47,327.86 1224.74,326.73 1226.32,325.94 1227.97,325.42 1230.45,325.09"/>
    </edge>
    <edge id=":11057922147_8" function="internal">
        <lane id=":11057922147_8_0" index="0" allow="pedestrian delivery bicycle" speed="3.83" length="4.80" shape="1222.47,327.86 1223.94,327.65 1224.79,327.98 1225.04,328.87 1224.67,330.30"/>
    </edge>
    <edge id=":11057922149_0" function="internal">
        <lane id=":11057922149_0_0" index="0" allow="pedestrian delivery bicycle" speed="5.01" length="5.04" shape="1219.36,255.12 1219.08,253.76 1218.43,252.83 1217.42,252.33 1216.03,252.26"/>
    </edge>
    <edge id=":11057922149_1" function="internal">
        <lane id=":11057922149_1_0" index="0" allow="pedestrian delivery bicycle" speed="6.94" length="10.17" shape="1219.36,255.12 1219.58,252.31 1220.61,250.22 1222.45,248.86 1225.10,248.22"/>
    </edge>
    <edge id=":11057922149_2" function="internal">
        <lane id=":11057922149_2_0" index="0" allow="pedestrian delivery bicycle" speed="3.65" length="4.67" shape="1219.36,255.12 1220.09,253.88 1220.86,253.43 1221.68,253.78 1222.55,254.93"/>
    </edge>
    <edge id=":11057922149_3" function="internal">
        <lane id=":11057922149_3_0" index="0" allow="pedestrian delivery bicycle" speed="5.15" length="5.13" shape="1225.40,251.40 1224.08,251.73 1223.17,252.43 1222.66,253.49 1222.55,254.93"/>
    </edge>
    <edge id=":11057922149_4" function="internal">
        <lane id=":11057922149_4_0" index="0" disallow="tram rail_urban rail rail_electric rail_fast ship container cable_car subway aircraft wheelchair scooter drone" speed="13.89" length="9.40" shape="1225.40,251.40 1216.03,252.26"/>
    </edge>
    <edge id=":11057922149_5" function="internal">
        <lane id=":11057922149_5_0" index="0" disallow="tram rail_urban rail rail_electric rail_fast ship container cable_car subway aircraft wheelchair scooter drone" speed="13.89" length="9.40" shape="1215.74,249.08 1225.10,248.22"/>
    </edge>
    <edge id=":11057922149_6" function="internal">
        <lane id=":11057922149_6_0" index="0" allow="pedestrian delivery bicycle" speed="6.84" length="3.29" shape="1215.74,249.08 1218.58,249.22 1218.98,249.42"/>
    </edge>
    <edge id=":11057922149_7" function="internal">
        <lane id=":11057922149_7_0" index="0" allow="pedestrian delivery bicycle" speed="6.84" length="7.03" shape="1218.98,249.42 1220.66,250.25 1221.98,252.15 1222.55,254.93"/>
    </edge>
    <edge id=":11070464890_0" function="internal">
        <lane id=":11070464890_0_0" index="0" disallow="tram rail_urban rail rail_electric rail_fast ship container cable_car subway aircraft wheelchair scooter drone" speed="6.09" length="7.37" shape="2323.61,594.44 2325.44,595.25 2326.62,596.46 2327.13,598.06 2326.99,600.06"/>
    </edge>
    <edge id=":11070464890_1" function="internal">
        <lane id=":11070464890_1_0" index="0" disallow="tram rail_urban rail rail_electric rail_fast ship container cable_car subway aircraft wheelchair scooter drone" speed="3.91" length="2.46" shape="2323.86,599.39 2323.91,598.72 2323.74,598.19 2323.35,597.79 2322.74,597.52"/>
    </edge>
    <edge id=":11070470596_0" function="internal">
        <lane id=":11070470596_0_0" index="0" disallow="tram rail_urban rail rail_electric rail_fast ship container cable_car subway aircraft wheelchair scooter drone" speed="13.89" length="9.66" shape="155.04,340.20 145.42,341.07"/>
    </edge>
    <edge id=":11070470596_1" function="internal">
        <lane id=":11070470596_1_0" index="0" allow="pedestrian delivery bicycle" speed="7.76" length="2.83" shape="155.04,340.20 152.65,339.99 152.27,339.80"/>
    </edge>
    <edge id=":11070470596_7" function="internal">
        <lane id=":11070470596_7_0" index="0" allow="pedestrian delivery bicycle" speed="7.76" length="7.64" shape="152.27,339.80 150.59,338.92 148.85,336.98 147.44,334.18"/>
    </edge>
    <edge id=":11070470596_2" function="internal">
        <lane id=":11070470596_2_0" index="0" allow="pedestrian delivery bicycle" speed="6.17" length="6.31" shape="150.42,333.02 151.30,334.86 152.32,336.14 153.47,336.85 154.75,337.01"/>
    </edge>
    <edge id=":11070470596_3" function="internal">
        <lane id=":11070470596_3_0" index="0" allow="pedestrian delivery bicycle" speed="6.70" length="11.67" shape="150.42,333.02 151.17,336.28 150.59,338.70 148.67,340.30 145.42,341.07"/>
    </edge>
    <edge id=":11070470596_4" function="internal">
        <lane id=":11070470596_4_0" index="0" allow="pedestrian delivery bicycle" speed="3.65" length="4.67" shape="150.42,333.02 150.11,334.43 149.51,335.09 148.61,335.01 147.44,334.18"/>
    </edge>
    <edge id=":11070470596_5" function="internal">
        <lane id=":11070470596_5_0" index="0" allow="pedestrian delivery bicycle" speed="4.80" length="5.37" shape="145.13,337.88 146.63,337.53 147.51,336.79 147.78,335.67 147.44,334.18"/>
    </edge>
    <edge id=":11070470596_6" function="internal">
        <lane id=":11070470596_6_0" index="0" disallow="tram rail_urban rail rail_electric rail_fast ship container cable_car subway aircraft wheelchair scooter drone" speed="13.89" length="9.66" shape="145.13,337.88 154.75,337.01"/>
    </edge>
    <edge id=":11070470604_0" function="internal">
        <lane id=":11070470604_0_0" index="0" allow="pedestrian delivery bicycle" speed="3.65" length="4.67" shape="44.28,357.23 42.87,357.57 42.01,357.32 41.70,356.48 41.93,355.06"/>
    </edge>
    <edge id=":11079747175_0" function="internal">
        <lane id=":11079747175_0_0" index="0" disallow="tram rail_urban rail rail_electric rail_fast ship container cable_car subway aircraft wheelchair scooter drone" speed="6.29" length="8.36" shape="2218.09,568.93 2216.00,568.73 2214.30,569.36 2212.99,570.83 2212.06,573.12"/>
    </edge>
    <edge id=":11079747175_1" function="internal">
        <lane id=":11079747175_1_0" index="0" disallow="tram rail_urban rail rail_electric rail_fast ship container cable_car subway aircraft wheelchair scooter drone" speed="22.22" length="13.53" shape="2218.09,568.93 2205.02,565.42"/>
    </edge>
    <edge id=":11079747175_2" function="internal">
        <lane id=":11079747175_2_0" index="0" disallow="tram rail_urban rail rail_electric rail_fast ship container cable_car subway aircraft wheelchair scooter drone" speed="3.65" length="1.44" shape="2218.09,568.93 2217.14,567.85"/>
    </edge>
    <edge id=":11079747175_9" function="internal">
        <lane id=":11079747175_9_0" index="0" disallow="tram rail_urban rail rail_electric rail_fast ship container cable_car subway aircraft wheelchair scooter drone" speed="3.65" length="3.23" shape="2217.14,567.85 2216.96,566.97 2217.56,566.30 2218.92,565.84"/>
    </edge>
    <edge id=":11079747175_3" function="internal">
        <lane id=":11079747175_3_0" index="0" disallow="tram rail_urban rail rail_electric rail_fast ship container cable_car subway aircraft wheelchair scooter drone" speed="22.22" length="13.53" shape="2205.85,562.33 2218.92,565.84"/>
    </edge>
    <edge id=":11079747175_4" function="internal">
        <lane id=":11079747175_4_0" index="0" disallow="tram rail_urban rail rail_electric rail_fast ship container cable_car subway aircraft wheelchair scooter drone" speed="8.00" length="4.07" shape="2205.85,562.33 2209.43,563.86 2209.55,563.99"/>
    </edge>
    <edge id=":11079747175_5" function="internal">
        <lane id=":11079747175_5_0" index="0" disallow="tram rail_urban rail rail_electric rail_fast ship container cable_car subway aircraft wheelchair scooter drone" speed="3.65" length="1.44" shape="2205.85,562.33 2206.80,563.42"/>
    </edge>
    <edge id=":11079747175_10" function="internal">
        <lane id=":11079747175_10_0" index="0" disallow="tram rail_urban rail rail_electric rail_fast ship container cable_car subway aircraft wheelchair scooter drone" speed="8.00" length="10.13" shape="2209.55,563.99 2211.66,566.17 2212.53,569.26 2212.06,573.12"/>
    </edge>
    <edge id=":11079747175_11" function="internal">
        <lane id=":11079747175_11_0" index="0" disallow="tram rail_urban rail rail_electric rail_fast ship container cable_car subway aircraft wheelchair scooter drone" speed="3.65" length="3.23" shape="2206.80,563.42 2206.98,564.29 2206.39,564.96 2205.02,565.42"/>
    </edge>
    <edge id=":11079747175_6" function="internal">
        <lane id=":11079747175_6_0" index="0" disallow="tram rail_urban rail rail_electric rail_fast ship container cable_car subway aircraft wheelchair scooter drone" speed="6.50" length="9.03" shape="2208.97,572.28 2209.27,569.83 2208.72,567.86 2207.30,566.40 2205.02,565.42"/>
    </edge>
    <edge id=":11079747175_7" function="internal">
        <lane id=":11079747175_7_0" index="0" disallow="tram rail_urban rail rail_electric rail_fast ship container cable_car subway aircraft wheelchair scooter drone" speed="7.83" length="13.50" shape="2208.97,572.28 2210.45,568.69 2212.61,566.42 2215.43,565.47 2218.92,565.84"/>
    </edge>
    <edge id=":11079747175_8" function="internal">
        <lane id=":11079747175_8_0" index="0" disallow="tram rail_urban rail rail_electric rail_fast ship container cable_car subway aircraft wheelchair scooter drone" speed="3.65" length="4.67" shape="2208.97,572.28 2210.05,571.34 2210.93,571.16 2211.60,571.75 2212.06,573.12"/>
    </edge>
    <edge id=":11079747176_0" function="internal">
        <lane id=":11079747176_0_0" index="0" disallow="tram rail_urban rail rail_electric rail_fast ship container cable_car subway aircraft wheelchair scooter drone" speed="3.65" length="4.67" shape="2205.39,597.70 2204.31,598.65 2203.43,598.82 2202.76,598.23 2202.31,596.86"/>
    </edge>
    <edge id=":11079747177_0" function="internal">
        <lane id=":11079747177_0_0" index="0" disallow="tram rail_urban rail rail_electric rail_fast ship container cable_car subway aircraft wheelchair scooter drone" speed="6.70" length="9.28" shape="2231.36,572.49 2228.92,572.21 2226.92,572.80 2225.36,574.27 2224.25,576.61"/>
    </edge>
    <edge id=":11079747177_1" function="internal">
        <lane id=":11079747177_1_0" index="0" disallow="tram rail_urban rail rail_electric rail_fast ship container cable_car subway aircraft wheelchair scooter drone" speed="22.22" length="13.54" shape="2231.36,572.49 2218.29,568.98"/>
    </edge>
    <edge id=":11079747177_2" function="internal">
        <lane id=":11079747177_2_0" index="0" disallow="tram rail_urban rail rail_electric rail_fast ship container cable_car subway aircraft wheelchair scooter drone" speed="3.65" length="1.44" shape="2231.36,572.49 2230.41,571.41"/>
    </edge>
    <edge id=":11079747177_9" function="internal">
        <lane id=":11079747177_9_0" index="0" disallow="tram rail_urban rail rail_electric rail_fast ship container cable_car subway aircraft wheelchair scooter drone" speed="3.65" length="3.23" shape="2230.41,571.41 2230.23,570.53 2230.83,569.86 2232.19,569.40"/>
    </edge>
    <edge id=":11079747177_3" function="internal">
        <lane id=":11079747177_3_0" index="0" disallow="tram rail_urban rail rail_electric rail_fast ship container cable_car subway aircraft wheelchair scooter drone" speed="22.22" length="13.54" shape="2219.12,565.89 2232.19,569.40"/>
    </edge>
    <edge id=":11079747177_4" function="internal">
        <lane id=":11079747177_4_0" index="0" disallow="tram rail_urban rail rail_electric rail_fast ship container cable_car subway aircraft wheelchair scooter drone" speed="7.74" length="3.71" shape="2219.12,565.89 2222.39,567.35 2222.47,567.44"/>
    </edge>
    <edge id=":11079747177_5" function="internal">
        <lane id=":11079747177_5_0" index="0" disallow="tram rail_urban rail rail_electric rail_fast ship container cable_car subway aircraft wheelchair scooter drone" speed="3.65" length="1.44" shape="2219.12,565.89 2220.07,566.97"/>
    </edge>
    <edge id=":11079747177_10" function="internal">
        <lane id=":11079747177_10_0" index="0" disallow="tram rail_urban rail rail_electric rail_fast ship container cable_car subway aircraft wheelchair scooter drone" speed="7.74" length="9.99" shape="2222.47,567.44 2224.34,569.63 2224.96,572.71 2224.25,576.61"/>
    </edge>
    <edge id=":11079747177_11" function="internal">
        <lane id=":11079747177_11_0" index="0" disallow="tram rail_urban rail rail_electric rail_fast ship container cable_car subway aircraft wheelchair scooter drone" speed="3.65" length="3.23" shape="2220.07,566.97 2220.25,567.85 2219.65,568.52 2218.29,568.98"/>
    </edge>
    <edge id=":11079747177_6" function="internal">
        <lane id=":11079747177_6_0" index="0" disallow="tram rail_urban rail rail_electric rail_fast ship container cable_car subway aircraft wheelchair scooter drone" speed="6.19" length="8.36" shape="2221.20,575.63 2221.67,573.19 2221.34,571.27 2220.21,569.86 2218.29,568.98"/>