<?xml version="1.0" encoding="UTF-8"?>

<!-- generated on 2025-04-21 21:42:25.942504 by osmWebWizard.py v1_22_0+0002-63e50f52594
<configuration>
    <net-file value="C:\Users\micha\Sumo\2025-04-21-21-42-16\osm.net.xml.gz"/>
    <output-trip-file value="C:\Users\micha\Sumo\2025-04-21-21-42-16\osm.truck.trips.xml"/>
    <route-file value="C:\Users\micha\Sumo\2025-04-21-21-42-16\osm.truck.rou.xml"/>
    <prefix value="truck"/>
    <trip-attributes value="departLane=&quot;best&quot;"/>
    <fringe-start-attributes value="departSpeed=&quot;max&quot;"/>
    <vehicle-class value="truck"/>
    <fringe-factor value="5"/>
    <vclass value="truck"/>
    <via-edge-types value="highway.motorway,highway.motorway_link,highway.trunk_link,highway.primary_link,highway.secondary_link,highway.tertiary_link"/>
    <min-distance value="600.0"/>
    <min-distance.fringe value="10.0"/>
    <remove-loops value="True"/>
    <validate value="True"/>
    <insertion-density value="8.0"/>
</configuration>
-->

<!-- generated on 2025-04-21 21:42:25 by Eclipse SUMO duarouter Version 1.22.0
<duarouterConfiguration xmlns:xsi="http://www.w3.org/2001/XMLSchema-instance" xsi:noNamespaceSchemaLocation="http://sumo.dlr.de/xsd/duarouterConfiguration.xsd">

    <input>
        <net-file value="C:\Users\micha\Sumo\2025-04-21-21-42-16\osm.net.xml.gz"/>
        <route-files value="C:\Users\micha\Sumo\2025-04-21-21-42-16\osm.truck.trips.xml"/>
    </input>

    <output>
        <output-file value="C:\Users\micha\Sumo\2025-04-21-21-42-16\osm.truck.trips.xml.tmp"/>
        <alternatives-output value="NUL"/>
        <write-trips value="true"/>
    </output>

    <processing>
        <remove-loops value="true"/>
    </processing>

    <time>
        <begin value="0.0"/>
        <end value="3600.0"/>
    </time>

    <report>
        <no-warnings value="true"/>
        <ignore-errors value="true"/>
        <no-step-log value="true"/>
    </report>

</duarouterConfiguration>
-->

<routes xmlns:xsi="http://www.w3.org/2001/XMLSchema-instance" xsi:noNamespaceSchemaLocation="http://sumo.dlr.de/xsd/routes_file.xsd">
    <vType id="truck_truck" vClass="truck"/>
    <trip id="truck1" type="truck_truck" depart="4.24" departLane="best" departSpeed="max" from="-28216673" to="-28094165"/>
    <trip id="truck2" type="truck_truck" depart="8.47" departLane="best" from="-414464256#5" to="-1193665111"/>
    <trip id="truck4" type="truck_truck" depart="16.94" departLane="best" from="158228205#1" to="-28090913#3"/>
    <trip id="truck5" type="truck_truck" depart="21.18" departLane="best" from="-28089643#4" to="28036991#7"/>
    <trip id="truck7" type="truck_truck" depart="29.65" departLane="best" from="28216531#2" to="28090916#5"/>
    <trip id="truck8" type="truck_truck" depart="33.88" departLane="best" from="-28235537#1" to="-28090685#8"/>
    <trip id="truck9" type="truck_truck" depart="38.12" departLane="best" from="414220174#5" to="-28242574"/>
    <trip id="truck10" type="truck_truck" depart="42.36" departLane="best" from="-28090682#10" to="-28089638#0"/>
    <trip id="truck11" type="truck_truck" depart="46.59" departLane="best" from="28216675#2" to="-28090677#2"/>
    <trip id="truck12" type="truck_truck" depart="50.83" departLane="best" from="28216531#4" to="28216526#1"/>
    <trip id="truck13" type="truck_truck" depart="55.06" departLane="best" departSpeed="max" from="-414017358#8" to="28036995#14"/>
    <trip id="truck14" type="truck_truck" depart="59.30" departLane="best" from="28216537#1" to="-28090683#10"/>
    <trip id="truck16" type="truck_truck" depart="67.77" departLane="best" from="28090693#0" to="-158228205#5"/>
    <trip id="truck17" type="truck_truck" depart="72.00" departLane="best" from="-28216529#7" to="-28216665#6"/>
    <trip id="truck18" type="truck_truck" depart="76.24" departLane="best" from="-28089643#5" to="-28094178#1"/>
    <trip id="truck19" type="truck_truck" depart="80.47" departLane="best" from="-28090683#1" to="-28216536"/>
    <trip id="truck20" type="truck_truck" depart="84.71" departLane="best" from="28037111#1" to="414022750#1"/>
    <trip id="truck21" type="truck_truck" depart="88.95" departLane="best" from="-414017358#1" to="-28090916#5"/>
    <trip id="truck22" type="truck_truck" depart="93.18" departLane="best" from="-28216665#6" to="414220174#0"/>
    <trip id="truck23" type="truck_truck" depart="97.42" departLane="best" from="-28089643#11" to="28090682#10"/>
    <trip id="truck24" type="truck_truck" depart="101.65" departLane="best" from="-28090765#6" to="-414218170#4"/>
    <trip id="truck25" type="truck_truck" depart="105.89" departLane="best" from="28216670#0" to="28216537#6"/>
    <trip id="truck26" type="truck_truck" depart="110.12" departLane="best" from="-28094170#1" to="414229478#0"/>
    <trip id="truck27" type="truck_truck" depart="114.36" departLane="best" from="28235534#0" to="-28218052#0"/>
    <trip id="truck28" type="truck_truck" depart="118.59" departLane="best" departSpeed="max" from="28090671" to="-414464256#11"/>
    <trip id="truck29" type="truck_truck" depart="122.83" departLane="best" from="404077793#6" to="1216676460"/>
    <trip id="truck30" type="truck_truck" depart="127.07" departLane="best" departSpeed="max" from="28036990#0" to="413994738#1"/>
    <trip id="truck31" type="truck_truck" depart="131.30" departLane="best" departSpeed="max" from="921507551#0" to="224117440#11"/>
    <trip id="truck32" type="truck_truck" depart="135.54" departLane="best" from="-28090682#0" to="-158228205#7"/>
    <trip id="truck33" type="truck_truck" depart="139.77" departLane="best" from="-28216528#4" to="-921507550"/>
    <trip id="truck35" type="truck_truck" depart="148.24" departLane="best" from="414464256#16" to="28235535#2"/>
    <trip id="truck37" type="truck_truck" depart="156.71" departLane="best" from="28090683#17" to="28036991#17"/>
    <trip id="truck38" type="truck_truck" depart="160.95" departLane="best" from="-28216665#6" to="28090685#4"/>
    <trip id="truck40" type="truck_truck" depart="169.42" departLane="best" departSpeed="max" from="-921507554" to="414464256#15"/>
    <trip id="truck41" type="truck_truck" depart="173.66" departLane="best" from="28235533" to="-28216534#3"/>
    <trip id="truck42" type="truck_truck" depart="177.89" departLane="best" departSpeed="max" from="1193665112" to="-28090764#0"/>
    <trip id="truck43" type="truck_truck" depart="182.13" departLane="best" from="404077793#4" to="28242584#0"/>
    <trip id="truck44" type="truck_truck" depart="186.36" departLane="best" from="28036995#11" to="-28090685#5"/>
    <trip id="truck45" type="truck_truck" depart="190.60" departLane="best" from="28090918#3" to="28036991#17"/>
    <trip id="truck46" type="truck_truck" depart="194.83" departLane="best" from="-1118446620#4" to="414218170#7"/>
    <trip id="truck47" type="truck_truck" depart="199.07" departLane="best" from="-28235535#1" to="28218052#1"/>
    <trip id="truck48" type="truck_truck" depart="203.30" departLane="best" departSpeed="max" from="-28218049" to="-169149760#3"/>
    <trip id="truck49" type="truck_truck" depart="207.54" departLane="best" from="-224117440#7" to="28216535#0"/>
    <trip id="truck50" type="truck_truck" depart="211.78" departLane="best" departSpeed="max" from="1033743481" to="28036995#11"/>
    <trip id="truck51" type="truck_truck" depart="216.01" departLane="best" from="-414464256#7" to="-28090917#0"/>
    <trip id="truck52" type="truck_truck" depart="220.25" departLane="best" from="-28094165" to="-28218047#1"/>
    <trip id="truck53" type="truck_truck" depart="224.48" departLane="best" departSpeed="max" from="921507550" to="-28090693#5"/>
    <trip id="truck54" type="truck_truck" depart="228.72" departLane="best" departSpeed="max" from="-676571307" to="224117440#20"/>
    <trip id="truck55" type="truck_truck" depart="232.95" departLane="best" from="-28090685#17" to="-28094166#2"/>
    <trip id="truck56" type="truck_truck" depart="237.19" departLane="best" departSpeed="max" from="-28235535#2" to="28089643#1"/>
    <trip id="truck57" type="truck_truck" depart="241.42" departLane="best" from="-28216530#2" to="-28090918#7"/>
    <trip id="truck58" type="truck_truck" depart="245.66" departLane="best" from="-224117440#9" to="28090685#0"/>
    <trip id="truck59" type="truck_truck" depart="249.89" departLane="best" from="-28216530#0" to="414017358#7"/>
    <trip id="truck60" type="truck_truck" depart="254.13" departLane="best" departSpeed="max" from="28218043" to="-224117440#16"/>
    <trip id="truck61" type="truck_truck" depart="258.37" departLane="best" from="-28216531#8" to="28090764#11"/>
    <trip id="truck62" type="truck_truck" depart="262.60" departLane="best" from="-28094178#0" to="28090683#12"/>
    <trip id="truck63" type="truck_truck" depart="266.84" departLane="best" from="414022751#1" to="28036995#32"/>
    <trip id="truck64" type="truck_truck" depart="271.07" departLane="best" departSpeed="max" from="1033743480" to="28216667"/>
    <trip id="truck65" type="truck_truck" depart="275.31" departLane="best" from="-28090682#6" to="1033692052"/>
    <trip id="truck66" type="truck_truck" depart="279.54" departLane="best" from="681465371" to="28089638#2"/>
    <trip id="truck67" type="truck_truck" depart="283.78" departLane="best" from="414229478#0" to="-28242574"/>
    <trip id="truck68" type="truck_truck" depart="288.01" departLane="best" from="28218046#0" to="-28216529#5"/>
    <trip id="truck70" type="truck_truck" depart="296.49" departLane="best" from="-414464256#5" to="-28216537#0"/>
    <trip id="truck71" type="truck_truck" depart="300.72" departLane="best" from="28216535#3" to="414218170#0"/>
    <trip id="truck72" type="truck_truck" depart="304.96" departLane="best" departSpeed="max" from="-921403160" to="28235535#2"/>
    <trip id="truck73" type="truck_truck" depart="309.19" departLane="best" departSpeed="max" from="921507551#0" to="-28218053"/>
    <trip id="truck74" type="truck_truck" depart="313.43" departLane="best" from="414464256#13" to="-414218170#4"/>
    <trip id="truck75" type="truck_truck" depart="317.66" departLane="best" from="28216675#3" to="-28090697#0"/>
    <trip id="truck76" type="truck_truck" depart="321.90" departLane="best" departSpeed="max" from="1043108594#0" to="28090917#2"/>
    <trip id="truck77" type="truck_truck" depart="326.13" departLane="best" from="-414220174#4" to="169149760#4"/>
    <trip id="truck78" type="truck_truck" depart="330.37" departLane="best" from="-414022750#0" to="921507549"/>
    <trip id="truck79" type="truck_truck" depart="334.60" departLane="best" from="414220174#5" to="921507554"/>
    <trip id="truck80" type="truck_truck" depart="338.84" departLane="best" from="224117440#18" to="28094166#2"/>
    <trip id="truck81" type="truck_truck" depart="343.08" departLane="best" from="-28090764#5" to="-28216675#1"/>
    <trip id="truck83" type="truck_truck" depart="351.55" departLane="best" from="169256156#1" to="28216531#1"/>
    <trip id="truck84" type="truck_truck" depart="355.78" departLane="best" departSpeed="max" from="158228205#0" to="28235532#0"/>
    <trip id="truck85" type="truck_truck" depart="360.02" departLane="best" from="-28090764#9" to="414464256#2"/>
    <trip id="truck87" type="truck_truck" depart="368.49" departLane="best" from="-28216531#4" to="-28090682#0"/>
    <trip id="truck89" type="truck_truck" depart="376.96" departLane="best" from="169149236#3" to="414220173#6"/>
    <trip id="truck90" type="truck_truck" depart="381.20" departLane="best" departSpeed="max" from="28094166#3" to="28091237"/>
    <trip id="truck91" type="truck_truck" depart="385.43" departLane="best" from="-28216534#0" to="-414464256#12"/>
    <trip id="truck92" type="truck_truck" depart="389.67" departLane="best" from="28090682#5" to="-28216871#1"/>
    <trip id="truck93" type="truck_truck" depart="393.90" departLane="best" departSpeed="max" from="-28218054#1" to="28216531#6"/>
    <trip id="truck94" type="truck_truck" depart="398.14" departLane="best" from="28089638#0" to="1216676460"/>
    <trip id="truck95" type="truck_truck" depart="402.37" departLane="best" from="-28089638#1" to="-28090917#1"/>
    <trip id="truck96" type="truck_truck" depart="406.61" departLane="best" from="-28216665#4" to="414220173#4"/>
    <trip id="truck97" type="truck_truck" depart="410.84" departLane="best" departSpeed="max" from="28235537#0" to="364251310#12"/>
    <trip id="truck98" type="truck_truck" depart="415.08" departLane="best" from="-414017358#1" to="-28090693#0"/>
    <trip id="truck99" type="truck_truck" depart="419.31" departLane="best" from="28216537#7" to="28090916#8"/>
    <trip id="truck100" type="truck_truck" depart="423.55" departLane="best" from="28036995#14" to="921507549"/>
    <trip id="truck102" type="truck_truck" depart="432.02" departLane="best" from="-28216534#7" to="-28216871#1"/>
    <trip id="truck103" type="truck_truck" depart="436.26" departLane="best" from="-28090677#3" to="414220174#3"/>
    <trip id="truck104" type="truck_truck" depart="440.49" departLane="best" from="-28090693#7" to="-28090677#1"/>
    <trip id="truck105" type="truck_truck" depart="444.73" departLane="best" from="-28090683#18" to="28036995#15"/>
    <trip id="truck106" type="truck_truck" depart="448.96" departLane="best" departSpeed="max" from="-28216673" to="-28090677#3"/>
    <trip id="truck108" type="truck_truck" depart="457.43" departLane="best" departSpeed="max" from="1043108594#0" to="414017358#7"/>
    <trip id="truck109" type="truck_truck" depart="461.67" departLane="best" from="28216675#0" to="-224132036"/>
    <trip id="truck110" type="truck_truck" depart="465.91" departLane="best" from="-414464256#7" to="28216535#9"/>
    <trip id="truck112" type="truck_truck" depart="474.38" departLane="best" from="-28216666#1" to="-1033743479"/>
    <trip id="truck113" type="truck_truck" depart="478.61" departLane="best" from="28089643#0" to="-364251310#5"/>
    <trip id="truck114" type="truck_truck" depart="482.85" departLane="best" from="404072554#0" to="28036991#7-AddedOffRampEdge"/>
    <trip id="truck115" type="truck_truck" depart="487.08" departLane="best" from="-28090763#9" to="-28090682#8"/>
    <trip id="truck116" type="truck_truck" depart="491.32" departLane="best" from="28216529#0" to="28235535#2"/>
    <trip id="truck117" type="truck_truck" depart="495.55" departLane="best" from="364251310#3" to="-28090916#6"/>
    <trip id="truck118" type="truck_truck" depart="499.79" departLane="best" from="28216535#3" to="-28089643#3"/>
    <trip id="truck119" type="truck_truck" depart="504.02" departLane="best" from="28094178#0" to="-364251310#7"/>
    <trip id="truck120" type="truck_truck" depart="508.26" departLane="best" from="-414229478#5" to="28090683#12"/>
    <trip id="truck121" type="truck_truck" depart="512.50" departLane="best" departSpeed="max" from="28218052#0" to="28090674#0"/>
    <trip id="truck122" type="truck_truck" depart="516.73" departLane="best" from="28216531#8" to="364251310#2"/>
    <trip id="truck123" type="truck_truck" depart="520.97" departLane="best" departSpeed="max" from="-1216676460" to="28216528#6"/>
    <trip id="truck124" type="truck_truck" depart="525.20" departLane="best" from="28235532#1" to="414220173#1"/>
    <trip id="truck125" type="truck_truck" depart="529.44" departLane="best" from="28216530#1" to="-28235540#2"/>
    <trip id="truck126" type="truck_truck" depart="533.67" departLane="best" from="28216526#1" to="28089643#9"/>
    <trip id="truck127" type="truck_truck" depart="537.91" departLane="best" departSpeed="max" from="28228986#0" to="28235535#2"/>
    <trip id="truck128" type="truck_truck" depart="542.14" departLane="best" from="-28216528#8" to="28218044#1"/>
    <trip id="truck129" type="truck_truck" depart="546.38" departLane="best" departSpeed="max" from="1032886503" to="-28218043"/>
    <trip id="truck130" type="truck_truck" depart="550.62" departLane="best" from="28216528#8" to="28094168"/>
    <trip id="truck131" type="truck_truck" depart="554.85" departLane="best" departSpeed="max" from="-1216676460" to="-28090765#7"/>
    <trip id="truck132" type="truck_truck" depart="559.09" departLane="best" departSpeed="max" from="-28228990" to="-28235540#2"/>
    <trip id="truck133" type="truck_truck" depart="563.32" departLane="best" from="-414464256#11" to="-28216537#1"/>
    <trip id="truck134" type="truck_truck" depart="567.56" departLane="best" from="28089638#0" to="-414464256#16"/>
    <trip id="truck135" type="truck_truck" depart="571.79" departLane="best" from="414217704#1" to="-28090677#1"/>
    <trip id="truck136" type="truck_truck" depart="576.03" departLane="best" from="414464256#15" to="-28090764#0"/>
    <trip id="truck137" type="truck_truck" depart="580.26" departLane="best" from="-414229478#4" to="-28216534#5"/>
    <trip id="truck138" type="truck_truck" depart="584.50" departLane="best" from="28090764#3" to="-28218052#0"/>
    <trip id="truck139" type="truck_truck" depart="588.74" departLane="best" departSpeed="max" from="28036995#0" to="224117440#13"/>
    <trip id="truck140" type="truck_truck" depart="592.97" departLane="best" from="-414022750#8" to="28037111#1"/>
    <trip id="truck141" type="truck_truck" depart="597.21" departLane="best" from="-28216535#9" to="28090918#3"/>
    <trip id="truck142" type="truck_truck" depart="601.44" departLane="best" departSpeed="max" from="169256156#0" to="28094166#3"/>
    <trip id="truck143" type="truck_truck" depart="605.68" departLane="best" from="-404072554#0" to="-224117440#15"/>
    <trip id="truck144" type="truck_truck" depart="609.91" departLane="best" from="28218053" to="28228987"/>
    <trip id="truck145" type="truck_truck" depart="614.15" departLane="best" from="28090763#4" to="-28216871#2"/>
    <trip id="truck146" type="truck_truck" depart="618.38" departLane="best" from="414229478#0" to="-28216675#0"/>
    <trip id="truck147" type="truck_truck" depart="622.62" departLane="best" from="414218170#1" to="28090765#2"/>
    <trip id="truck148" type="truck_truck" depart="626.85" departLane="best" from="-169149760#5" to="28090682#8"/>
    <trip id="truck151" type="truck_truck" depart="639.56" departLane="best" departSpeed="max" from="28090671" to="-158228205#5"/>
    <trip id="truck152" type="truck_truck" depart="643.80" departLane="best" departSpeed="max" from="-921403160" to="28090917#2"/>
    <trip id="truck153" type="truck_truck" depart="648.03" departLane="best" departSpeed="max" from="1033743480" to="414017358#1"/>
    <trip id="truck154" type="truck_truck" depart="652.27" departLane="best" from="28090674#1" to="224117440#18"/>
    <trip id="truck156" type="truck_truck" depart="660.74" departLane="best" from="28090682#6" to="-28094166#2"/>
    <trip id="truck157" type="truck_truck" depart="664.97" departLane="best" departSpeed="max" from="-28091234#1" to="-1118446620#0"/>
    <trip id="truck158" type="truck_truck" depart="669.21" departLane="best" from="-28216535#0" to="169149148"/>
    <trip id="truck159" type="truck_truck" depart="673.45" departLane="best" from="-414464256#17" to="28090683#8"/>
    <trip id="truck160" type="truck_truck" depart="677.68" departLane="best" departSpeed="max" from="1193665111" to="-28216528#7"/>
    <trip id="truck161" type="truck_truck" depart="681.92" departLane="best" from="28090915#1" to="28216535#9"/>
    <trip id="truck162" type="truck_truck" depart="686.15" departLane="best" from="169149236#0" to="169149147#2"/>
    <trip id="truck163" type="truck_truck" depart="690.39" departLane="best" from="28216535#2" to="28228987"/>
    <trip id="truck164" type="truck_truck" depart="694.62" departLane="best" from="28090682#1" to="921507549"/>
    <trip id="truck166" type="truck_truck" depart="703.09" departLane="best" from="28242584#0" to="28090682#4"/>
    <trip id="truck169" type="truck_truck" depart="715.80" departLane="best" from="-28216535#12" to="28090685#16"/>
    <trip id="truck170" type="truck_truck" depart="720.04" departLane="best" from="-28216672" to="-28228986#0"/>
    <trip id="truck171" type="truck_truck" depart="724.27" departLane="best" departSpeed="max" from="169256156#0" to="28090683#4"/>
    <trip id="truck172" type="truck_truck" depart="728.51" departLane="best" from="-28216530#3" to="28090916#0"/>
    <trip id="truck173" type="truck_truck" depart="732.74" departLane="best" from="-414464256#0" to="28036991#5"/>
    <trip id="truck174" type="truck_truck" depart="736.98" departLane="best" from="-414464256#3" to="414017358#6"/>
    <trip id="truck175" type="truck_truck" depart="741.21" departLane="best" departSpeed="max" from="28036990#0" to="28090916#2"/>
    <trip id="truck178" type="truck_truck" depart="753.92" departLane="best" from="28216995" to="414464256#14"/>
    <trip id="truck179" type="truck_truck" depart="758.16" departLane="best" departSpeed="max" from="-414464256#18" to="28216531#0"/>
    <trip id="truck181" type="truck_truck" depart="766.63" departLane="best" from="-28216528#5" to="-28090918#6"/>
    <trip id="truck182" type="truck_truck" depart="770.86" departLane="best" from="-28235535#1" to="28090765#4"/>
    <trip id="truck183" type="truck_truck" depart="775.10" departLane="best" departSpeed="max" from="1033743479" to="-28090682#8"/>
    <trip id="truck184" type="truck_truck" depart="779.33" departLane="best" from="28036995#27" to="-1118446620#3"/>
    <trip id="truck185" type="truck_truck" depart="783.57" departLane="best" from="-414218170#3" to="28036995#29"/>
    <trip id="truck186" type="truck_truck" depart="787.80" departLane="best" from="28090694#2" to="-158228205#1"/>
    <trip id="truck187" type="truck_truck" depart="792.04" departLane="best" from="28090918#1" to="-414218170#3"/>
    <trip id="truck188" type="truck_truck" depart="796.27" departLane="best" from="28090916#0" to="28218052#1"/>
    <trip id="truck189" type="truck_truck" depart="800.51" departLane="best" from="-28216535#6" to="-224117440#7"/>
    <trip id="truck190" type="truck_truck" depart="804.75" departLane="best" from="-1118446620#4" to="28036991#17"/>
    <trip id="truck191" type="truck_truck" depart="808.98" departLane="best" departSpeed="max" from="921507551#0" to="-364251310#6"/>
    <trip id="truck192" type="truck_truck" depart="813.22" departLane="best" from="-28089643#4" to="28216665#4"/>
    <trip id="truck193" type="truck_truck" depart="817.45" departLane="best" from="-28089643#6" to="28216534#0"/>
    <trip id="truck194" type="truck_truck" depart="821.69" departLane="best" from="-28090685#7" to="28090764#2"/>
    <trip id="truck195" type="truck_truck" depart="825.92" departLane="best" from="-28090913#10" to="-28094178#1"/>
    <trip id="truck196" type="truck_truck" depart="830.16" departLane="best" from="-28090913#7" to="-28090677#0"/>
    <trip id="truck197" type="truck_truck" depart="834.39" departLane="best" from="28216535#10" to="414464256#7"/>
    <trip id="truck198" type="truck_truck" depart="838.63" departLane="best" from="-28090683#2" to="-1118446620#1"/>
    <trip id="truck199" type="truck_truck" depart="842.87" departLane="best" departSpeed="max" from="-28218052#1" to="28090765#2"/>
    <trip id="truck200" type="truck_truck" depart="847.10" departLane="best" from="28090697#3" to="-224117440#22"/>
    <trip id="truck201" type="truck_truck" depart="851.34" departLane="best" from="28090685#1" to="28090683#5"/>
    <trip id="truck202" type="truck_truck" depart="855.57" departLane="best" from="-28090683#10" to="28216537#1"/>
    <trip id="truck203" type="truck_truck" depart="859.81" departLane="best" from="-28216871#1" to="28090674#1"/>
    <trip id="truck204" type="truck_truck" depart="864.04" departLane="best" from="-28090685#17" to="921403160"/>
    <trip id="truck205" type="truck_truck" depart="868.28" departLane="best" departSpeed="max" from="28094179#0" to="-364251310#2"/>
    <trip id="truck206" type="truck_truck" depart="872.51" departLane="best" departSpeed="max" from="-506558392" to="-414022750#8"/>
    <trip id="truck207" type="truck_truck" depart="876.75" departLane="best" departSpeed="max" from="158228205#0" to="-28242584#1"/>
    <trip id="truck208" type="truck_truck" depart="880.98" departLane="best" from="28216871#0" to="28218046#1"/>
    <trip id="truck209" type="truck_truck" depart="885.22" departLane="best" from="28037111#1" to="28218049"/>
    <trip id="truck211" type="truck_truck" depart="893.69" departLane="best" departSpeed="max" from="-676571307" to="28216526#2"/>
    <trip id="truck212" type="truck_truck" depart="897.93" departLane="best" from="-28216666#1" to="28228990"/>
    <trip id="truck213" type="truck_truck" depart="902.16" departLane="best" from="28216537#3" to="-224131615"/>
    <trip id="truck214" type="truck_truck" depart="906.40" departLane="best" departSpeed="max" from="28235537#0" to="-28216528#7"/>
    <trip id="truck216" type="truck_truck" depart="914.87" departLane="best" from="-414022750#0" to="1118446620#5"/>
    <trip id="truck217" type="truck_truck" depart="919.10" departLane="best" from="-28216871#2" to="28090764#3"/>
    <trip id="truck218" type="truck_truck" depart="923.34" departLane="best" from="-28094170#2" to="28216865"/>
    <trip id="truck219" type="truck_truck" depart="927.58" departLane="best" from="-28235537#1" to="364251310#14"/>
    <trip id="truck220" type="truck_truck" depart="931.81" departLane="best" from="-28090685#7" to="28216535#8"/>
    <trip id="truck222" type="truck_truck" depart="940.28" departLane="best" departSpeed="max" from="1043108594#0" to="28216534#5"/>
    <trip id="truck223" type="truck_truck" depart="944.52" departLane="best" from="28090685#1" to="28090693#0"/>
    <trip id="truck224" type="truck_truck" depart="948.75" departLane="best" from="1118446620#2" to="28216674"/>
    <trip id="truck225" type="truck_truck" depart="952.99" departLane="best" from="-28090682#11" to="-28091234#0"/>
    <trip id="truck226" type="truck_truck" depart="957.22" departLane="best" from="28090685#11" to="-28218043"/>
    <trip id="truck228" type="truck_truck" depart="965.69" departLane="best" from="169149760#3" to="-921507550"/>
    <trip id="truck229" type="truck_truck" depart="969.93" departLane="best" from="-28090913#5" to="-28235537#0"/>
    <trip id="truck230" type="truck_truck" depart="974.17" departLane="best" from="-28090685#9" to="28216535#13"/>
    <trip id="truck231" type="truck_truck" depart="978.40" departLane="best" from="-28216535#5" to="-28089638#1"/>
    <trip id="truck232" type="truck_truck" depart="982.64" departLane="best" from="28090918#5" to="-28090682#0"/>
    <trip id="truck233" type="truck_truck" depart="986.87" departLane="best" departSpeed="max" from="-28216868" to="-28089643#1"/>
    <trip id="truck234" type="truck_truck" depart="991.11" departLane="best" from="-28090916#4" to="-1033743480"/>
    <trip id="truck235" type="truck_truck" depart="995.34" departLane="best" from="414464256#4" to="28036995#16"/>
    <trip id="truck236" type="truck_truck" depart="999.58" departLane="best" from="28090685#2" to="-28090682#7"/>
    <trip id="truck237" type="truck_truck" depart="1003.81" departLane="best" from="28218053" to="169149760#1"/>
    <trip id="truck238" type="truck_truck" depart="1008.05" departLane="best" departSpeed="max" from="28228986#0" to="28036995#7"/>
    <trip id="truck240" type="truck_truck" depart="1016.52" departLane="best" departSpeed="max" from="-28090916#8" to="169149147#3"/>
    <trip id="truck241" type="truck_truck" depart="1020.76" departLane="best" from="414218170#1" to="169149236#1"/>
    <trip id="truck242" type="truck_truck" depart="1024.99" departLane="best" from="28089638#2" to="28090683#8"/>
    <trip id="truck243" type="truck_truck" depart="1029.23" departLane="best" from="-224117440#10" to="-28090685#16"/>
    <trip id="truck244" type="truck_truck" depart="1033.46" departLane="best" from="224117440#4" to="-28216996#1"/>
    <trip id="truck245" type="truck_truck" depart="1037.70" departLane="best" departSpeed="max" from="921507550" to="-28090677#5"/>
    <trip id="truck246" type="truck_truck" depart="1041.93" departLane="best" from="28090918#5" to="-28090677#5"/>
    <trip id="truck247" type="truck_truck" depart="1046.17" departLane="best" from="28216528#2" to="-28094167#0"/>
    <trip id="truck249" type="truck_truck" depart="1054.64" departLane="best" departSpeed="max" from="-921403160" to="28235535#2"/>
    <trip id="truck250" type="truck_truck" depart="1058.88" departLane="best" departSpeed="max" from="921403161" to="-28218043"/>
    <trip id="truck251" type="truck_truck" depart="1063.11" departLane="best" from="28090765#8" to="-414229478#6"/>
    <trip id="truck252" type="truck_truck" depart="1067.35" departLane="best" from="-28094167#1" to="28090916#7"/>
    <trip id="truck253" type="truck_truck" depart="1071.58" departLane="best" from="28090674#2" to="-28090689"/>
    <trip id="truck254" type="truck_truck" depart="1075.82" departLane="best" from="-28090913#9" to="224117440#20"/>
    <trip id="truck256" type="truck_truck" depart="1084.29" departLane="best" from="-28216530#3" to="-28090918#1"/>
    <trip id="truck257" type="truck_truck" depart="1088.52" departLane="best" from="-28090685#9" to="1118446620#3"/>
    <trip id="truck258" type="truck_truck" depart="1092.76" departLane="best" from="28090683#7" to="414218170#0"/>
    <trip id="truck259" type="truck_truck" depart="1097.00" departLane="best" from="28216526#2" to="28090683#2"/>
    <trip id="truck260" type="truck_truck" depart="1101.23" departLane="best" from="-28090677#0" to="414220173#5"/>
    <trip id="truck261" type="truck_truck" depart="1105.47" departLane="best" from="28089643#11" to="414017358#8"/>
    <trip id="truck262" type="truck_truck" depart="1109.70" departLane="best" from="28090913#0" to="-28218043"/>
    <trip id="truck263" type="truck_truck" depart="1113.94" departLane="best" from="-28090913#8" to="28036995#32"/>
    <trip id="truck264" type="truck_truck" depart="1118.17" departLane="best" departSpeed="max" from="-28216871#6" to="-28090682#4"/>