<?xml version="1.0" encoding="UTF-8"?>

<!-- generated on 2025-04-21 22:42:07.116035 by osmWebWizard.py v1_22_0+0002-63e50f52594
<configuration>
    <net-file value="C:\Users\micha\Sumo\2025-04-21-22-41-52\osm.net.xml.gz"/>
    <output-trip-file value="C:\Users\micha\Sumo\2025-04-21-22-41-52\osm.truck.trips.xml"/>
    <route-file value="C:\Users\micha\Sumo\2025-04-21-22-41-52\osm.truck.rou.xml"/>
    <prefix value="truck"/>
    <trip-attributes value="departLane=&quot;best&quot;"/>
    <fringe-start-attributes value="departSpeed=&quot;max&quot;"/>
    <vehicle-class value="truck"/>
    <fringe-factor value="8"/>
    <vclass value="truck"/>
    <via-edge-types value="highway.motorway,highway.motorway_link,highway.trunk_link,highway.primary_link,highway.secondary_link,highway.tertiary_link"/>
    <min-distance value="600.0"/>
    <min-distance.fringe value="10.0"/>
    <remove-loops value="True"/>
    <validate value="True"/>
    <insertion-density value="8.0"/>
</configuration>
-->

<!-- generated on 2025-04-21 22:42:06 by Eclipse SUMO duarouter Version 1.22.0
<duarouterConfiguration xmlns:xsi="http://www.w3.org/2001/XMLSchema-instance" xsi:noNamespaceSchemaLocation="http://sumo.dlr.de/xsd/duarouterConfiguration.xsd">

    <input>
        <net-file value="C:\Users\micha\Sumo\2025-04-21-22-41-52\osm.net.xml.gz"/>
        <route-files value="C:\Users\micha\Sumo\2025-04-21-22-41-52\osm.truck.trips.xml"/>
    </input>

    <output>
        <output-file value="C:\Users\micha\Sumo\2025-04-21-22-41-52\osm.truck.trips.xml.tmp"/>
        <alternatives-output value="NUL"/>
        <write-trips value="true"/>
    </output>

    <processing>
        <remove-loops value="true"/>
    </processing>

    <time>
        <begin value="0.0"/>
        <end value="3600.0"/>
    </time>

    <report>
        <no-warnings value="true"/>
        <ignore-errors value="true"/>
        <no-step-log value="true"/>
    </report>

</duarouterConfiguration>
-->

<routes xmlns:xsi="http://www.w3.org/2001/XMLSchema-instance" xsi:noNamespaceSchemaLocation="http://sumo.dlr.de/xsd/routes_file.xsd">
    <vType id="truck_truck" vClass="truck"/>
    <trip id="truck0" type="truck_truck" depart="0.00" departLane="best" departSpeed="max" from="-561898829" to="-745499160"/>
    <trip id="truck1" type="truck_truck" depart="2.09" departLane="best" from="301866515#3" to="28287208#1"/>
    <trip id="truck2" type="truck_truck" depart="4.17" departLane="best" from="410600746#2" to="-28246164#0"/>
    <trip id="truck3" type="truck_truck" depart="6.26" departLane="best" departSpeed="max" from="229024914" to="-1269046125"/>
    <trip id="truck4" type="truck_truck" depart="8.34" departLane="best" departSpeed="max" from="-28287208#2" to="28182234#13"/>
    <trip id="truck5" type="truck_truck" depart="10.43" departLane="best" departSpeed="max" from="-1191697369" to="-403459191"/>
    <trip id="truck6" type="truck_truck" depart="12.51" departLane="best" from="28250959" to="28247969#1"/>
    <trip id="truck7" type="truck_truck" depart="14.60" departLane="best" departSpeed="max" from="-28287208#2" to="28250935"/>
    <trip id="truck8" type="truck_truck" depart="16.68" departLane="best" from="301867023#1" to="301866112#3"/>
    <trip id="truck9" type="truck_truck" depart="18.77" departLane="best" from="301867017#4" to="301866390#12"/>
    <trip id="truck11" type="truck_truck" depart="22.94" departLane="best" from="685851053#2" to="176676784#1"/>
    <trip id="truck12" type="truck_truck" depart="25.02" departLane="best" departSpeed="max" from="-28181330#1" to="-28247969#0"/>
    <trip id="truck13" type="truck_truck" depart="27.11" departLane="best" from="410341119#5" to="28250952"/>
    <trip id="truck14" type="truck_truck" depart="29.19" departLane="best" from="301867017#7" to="301866667#4"/>
    <trip id="truck15" type="truck_truck" depart="31.28" departLane="best" from="-28181335#0" to="711877139#0"/>
    <trip id="truck16" type="truck_truck" depart="33.37" departLane="best" departSpeed="max" from="159813492#0" to="28250316#6"/>
    <trip id="truck17" type="truck_truck" depart="35.45" departLane="best" from="403495283#1" to="28250958#1"/>
    <trip id="truck18" type="truck_truck" depart="37.54" departLane="best" from="410344188#3" to="28250346"/>
    <trip id="truck21" type="truck_truck" depart="43.79" departLane="best" departSpeed="max" from="-28182240" to="1191697369"/>
    <trip id="truck22" type="truck_truck" depart="45.88" departLane="best" from="28250940#2" to="229024915"/>
    <trip id="truck24" type="truck_truck" depart="50.05" departLane="best" departSpeed="max" from="-28250953#4" to="301866667#2"/>
    <trip id="truck25" type="truck_truck" depart="52.13" departLane="best" from="28250949#4" to="280670459#15"/>
    <trip id="truck26" type="truck_truck" depart="54.22" departLane="best" from="80676641#0-AddedOffRampEdge" to="28252109#1"/>
    <trip id="truck28" type="truck_truck" depart="58.39" departLane="best" from="410313404#5" to="301867011#3"/>
    <trip id="truck29" type="truck_truck" depart="60.47" departLane="best" from="1042329236#1" to="1060425452"/>
    <trip id="truck30" type="truck_truck" depart="62.56" departLane="best" from="-28284411#4" to="561898829"/>
    <trip id="truck31" type="truck_truck" depart="64.64" departLane="best" from="410348029#3" to="1345159823"/>
    <trip id="truck32" type="truck_truck" depart="66.73" departLane="best" from="28251468#0" to="28118323#4"/>
    <trip id="truck33" type="truck_truck" depart="68.82" departLane="best" from="413956389#4" to="28177411#5"/>
    <trip id="truck34" type="truck_truck" depart="70.90" departLane="best" departSpeed="max" from="28182241#0" to="1042329234#6"/>
    <trip id="truck35" type="truck_truck" depart="72.99" departLane="best" departSpeed="max" from="28247445" to="410608277#0"/>
    <trip id="truck36" type="truck_truck" depart="75.07" departLane="best" departSpeed="max" from="196991469" to="-685851054#1"/>
    <trip id="truck38" type="truck_truck" depart="79.24" departLane="best" departSpeed="max" from="-28247439#1" to="28251469#1"/>
    <trip id="truck39" type="truck_truck" depart="81.33" departLane="best" from="301866711#7" to="28150906#21"/>
    <trip id="truck40" type="truck_truck" depart="83.41" departLane="best" from="-158408625#0" to="280670459#20"/>
    <trip id="truck41" type="truck_truck" depart="85.50" departLane="best" from="878058516#2" to="28197699#1"/>
    <trip id="truck42" type="truck_truck" depart="87.58" departLane="best" from="722361333#2" to="410344191#1"/>
    <trip id="truck43" type="truck_truck" depart="89.67" departLane="best" departSpeed="max" from="-1035941619#1" to="301866664#0"/>
    <trip id="truck44" type="truck_truck" depart="91.75" departLane="best" departSpeed="max" from="28253275" to="28247442#0"/>
    <trip id="truck45" type="truck_truck" depart="93.84" departLane="best" from="-441998022#1" to="-28252111#0"/>
    <trip id="truck46" type="truck_truck" depart="95.92" departLane="best" departSpeed="max" from="-28247439#1" to="28151174#3"/>
    <trip id="truck47" type="truck_truck" depart="98.01" departLane="best" from="28118323#4" to="666022060#1"/>
    <trip id="truck48" type="truck_truck" depart="100.10" departLane="best" from="410348029#2" to="1042329234#7"/>
    <trip id="truck49" type="truck_truck" depart="102.18" departLane="best" from="28176235#2" to="-293075488"/>
    <trip id="truck50" type="truck_truck" depart="104.27" departLane="best" from="413956388#3" to="410348026#3"/>
    <trip id="truck51" type="truck_truck" depart="106.35" departLane="best" from="1024989362#2" to="28252109#1"/>
    <trip id="truck52" type="truck_truck" depart="108.44" departLane="best" from="28250326#0" to="-28252112#0"/>
    <trip id="truck53" type="truck_truck" depart="110.52" departLane="best" from="301866698#17" to="28247442#3"/>
    <trip id="truck54" type="truck_truck" depart="112.61" departLane="best" departSpeed="max" from="301866710#0" to="28246158#0"/>
    <trip id="truck55" type="truck_truck" depart="114.69" departLane="best" departSpeed="max" from="-1033113608" to="159813491#12"/>
    <trip id="truck56" type="truck_truck" depart="116.78" departLane="best" departSpeed="max" from="-1190074908" to="441998017#25"/>
    <trip id="truck57" type="truck_truck" depart="118.86" departLane="best" from="410359601#0" to="410313404#16"/>
    <trip id="truck58" type="truck_truck" depart="120.95" departLane="best" departSpeed="max" from="1035941618" to="-199712667"/>
    <trip id="truck59" type="truck_truck" depart="123.03" departLane="best" from="410359599" to="561900134#12"/>
    <trip id="truck60" type="truck_truck" depart="125.12" departLane="best" from="28176238#0" to="28181330#1"/>
    <trip id="truck61" type="truck_truck" depart="127.20" departLane="best" departSpeed="max" from="-176676784#2" to="301866711#12"/>
    <trip id="truck62" type="truck_truck" depart="129.29" departLane="best" from="28150906#1" to="-28247976#1"/>
    <trip id="truck63" type="truck_truck" depart="131.37" departLane="best" departSpeed="max" from="-43007533" to="410348029#2"/>
    <trip id="truck65" type="truck_truck" depart="135.55" departLane="best" from="28181343#0" to="301866667#4"/>
    <trip id="truck66" type="truck_truck" depart="137.63" departLane="best" from="-28252114#1" to="132951313#3"/>
    <trip id="truck67" type="truck_truck" depart="139.72" departLane="best" from="878058516#0" to="28252122#0"/>
    <trip id="truck68" type="truck_truck" depart="141.80" departLane="best" from="280670459#18" to="28182666"/>
    <trip id="truck69" type="truck_truck" depart="143.89" departLane="best" departSpeed="max" from="-28247969#1" to="-745499160"/>
    <trip id="truck71" type="truck_truck" depart="148.06" departLane="best" departSpeed="max" from="-197082255#1" to="28252102"/>
    <trip id="truck72" type="truck_truck" depart="150.14" departLane="best" departSpeed="max" from="-293075487" to="413956384#0"/>
    <trip id="truck73" type="truck_truck" depart="152.23" departLane="best" from="410344188#16" to="28176238#1"/>
    <trip id="truck75" type="truck_truck" depart="156.40" departLane="best" departSpeed="max" from="-28284411#5" to="-28250949#3"/>
    <trip id="truck76" type="truck_truck" depart="158.48" departLane="best" from="441998017#28" to="28171708#0"/>
    <trip id="truck78" type="truck_truck" depart="162.65" departLane="best" from="301867017#8" to="-391057703#0"/>
    <trip id="truck79" type="truck_truck" depart="164.74" departLane="best" from="-28181333#4" to="28151174#0"/>
    <trip id="truck80" type="truck_truck" depart="166.83" departLane="best" from="280670456#10" to="28177415#1"/>
    <trip id="truck81" type="truck_truck" depart="168.91" departLane="best" from="301866514#4" to="28287203#2"/>
    <trip id="truck82" type="truck_truck" depart="171.00" departLane="best" departSpeed="max" from="199712667" to="176676784#2"/>
    <trip id="truck83" type="truck_truck" depart="173.08" departLane="best" from="410344188#3" to="1035941616"/>
    <trip id="truck84" type="truck_truck" depart="175.17" departLane="best" from="-28252103#1" to="28176232"/>
    <trip id="truck85" type="truck_truck" depart="177.25" departLane="best" departSpeed="max" from="229024914" to="1191697369"/>
    <trip id="truck86" type="truck_truck" depart="179.34" departLane="best" from="391057703#1" to="441998017#0"/>
    <trip id="truck87" type="truck_truck" depart="181.42" departLane="best" from="280670459#31" to="410344191#3"/>
    <trip id="truck89" type="truck_truck" depart="185.59" departLane="best" from="301866667#2" to="410341118#0"/>
    <trip id="truck90" type="truck_truck" depart="187.68" departLane="best" from="722356360#4" to="159813491#10"/>
    <trip id="truck91" type="truck_truck" depart="189.76" departLane="best" from="410343198#0" to="-28287203#0"/>
    <trip id="truck92" type="truck_truck" depart="191.85" departLane="best" from="28150906#8" to="-515905304#0"/>
    <trip id="truck93" type="truck_truck" depart="193.93" departLane="best" from="-197082255#0" to="-199712667"/>
    <trip id="truck94" type="truck_truck" depart="196.02" departLane="best" departSpeed="max" from="159813492#0" to="80445163#2"/>
    <trip id="truck95" type="truck_truck" depart="198.10" departLane="best" departSpeed="max" from="-43007533" to="301867017#2"/>
    <trip id="truck96" type="truck_truck" depart="200.19" departLane="best" from="28118323#7" to="280670459#7"/>
    <trip id="truck97" type="truck_truck" depart="202.28" departLane="best" from="685851053#2" to="-878058516#0"/>
    <trip id="truck98" type="truck_truck" depart="204.36" departLane="best" from="28182234#12" to="301866515#7"/>
    <trip id="truck100" type="truck_truck" depart="208.53" departLane="best" from="722356360#3" to="28250346"/>
    <trip id="truck101" type="truck_truck" depart="210.62" departLane="best" from="28176235#9" to="410344188#15"/>
    <trip id="truck103" type="truck_truck" depart="214.79" departLane="best" from="28250316#0" to="28287207#2"/>
    <trip id="truck104" type="truck_truck" depart="216.87" departLane="best" from="301866112#4" to="-28250934#3"/>
    <trip id="truck105" type="truck_truck" depart="218.96" departLane="best" from="410363681#2" to="1035941616"/>
    <trip id="truck106" type="truck_truck" depart="221.04" departLane="best" from="28247976#0" to="28250958#1"/>
    <trip id="truck107" type="truck_truck" depart="223.13" departLane="best" from="229024629" to="28250349"/>
    <trip id="truck108" type="truck_truck" depart="225.21" departLane="best" from="-301866707#11" to="28118323#4"/>
    <trip id="truck109" type="truck_truck" depart="227.30" departLane="best" departSpeed="max" from="28252112#0" to="1193693468#1"/>
    <trip id="truck110" type="truck_truck" depart="229.38" departLane="best" from="1042329236#3" to="301866706"/>
    <trip id="truck111" type="truck_truck" depart="231.47" departLane="best" from="515905304#0" to="-878058516#2"/>
    <trip id="truck112" type="truck_truck" depart="233.56" departLane="best" departSpeed="max" from="-197082255#1" to="-515905304#0"/>
    <trip id="truck113" type="truck_truck" depart="235.64" departLane="best" departSpeed="max" from="-43007533" to="441998017#7"/>
    <trip id="truck115" type="truck_truck" depart="239.81" departLane="best" from="408059047#0" to="301866391#2"/>
    <trip id="truck116" type="truck_truck" depart="241.90" departLane="best" from="28250330#1" to="80676636#0"/>
    <trip id="truck117" type="truck_truck" depart="243.98" departLane="best" departSpeed="max" from="28250961#0" to="-1193473050"/>
    <trip id="truck118" type="truck_truck" depart="246.07" departLane="best" from="37985780#10" to="1193693468#1"/>
    <trip id="truck119" type="truck_truck" depart="248.15" departLane="best" from="28252104#0" to="543331071"/>
    <trip id="truck121" type="truck_truck" depart="252.32" departLane="best" departSpeed="max" from="-543331071" to="28250952"/>
    <trip id="truck122" type="truck_truck" depart="254.41" departLane="best" from="301866112#4" to="-410359603#1"/>
    <trip id="truck123" type="truck_truck" depart="256.49" departLane="best" from="28250939#4" to="1042329236#0"/>
    <trip id="truck124" type="truck_truck" depart="258.58" departLane="best" departSpeed="max" from="28150911" to="413956384#0"/>
    <trip id="truck125" type="truck_truck" depart="260.66" departLane="best" from="410341119#1" to="-28247444"/>
    <trip id="truck126" type="truck_truck" depart="262.75" departLane="best" from="280670456#10" to="1191697369"/>
    <trip id="truck127" type="truck_truck" depart="264.83" departLane="best" departSpeed="max" from="-1035941616" to="301866711#7"/>
    <trip id="truck128" type="truck_truck" depart="266.92" departLane="best" from="28250943#1" to="1042329234#4"/>
    <trip id="truck129" type="truck_truck" depart="269.01" departLane="best" from="301866515#7" to="28250316#5"/>
    <trip id="truck130" type="truck_truck" depart="271.09" departLane="best" from="280670456#8" to="-1193495978"/>
    <trip id="truck131" type="truck_truck" depart="273.18" departLane="best" from="410613714#8" to="28247970"/>
    <trip id="truck132" type="truck_truck" depart="275.26" departLane="best" from="408059047#2" to="-28250347#4"/>
    <trip id="truck133" type="truck_truck" depart="277.35" departLane="best" from="28250350#0" to="28250947#3"/>
    <trip id="truck134" type="truck_truck" depart="279.43" departLane="best" departSpeed="max" from="1035941618" to="410613713#0"/>
    <trip id="truck135" type="truck_truck" depart="281.52" departLane="best" from="301867011#1" to="410344191#1"/>
    <trip id="truck137" type="truck_truck" depart="285.69" departLane="best" from="391057703#1" to="-28247976#0"/>
    <trip id="truck138" type="truck_truck" depart="287.77" departLane="best" from="301866711#1" to="410359603#0"/>
    <trip id="truck139" type="truck_truck" depart="289.86" departLane="best" from="-28250943#0" to="441998017#27"/>
    <trip id="truck140" type="truck_truck" depart="291.94" departLane="best" from="410344189#1" to="722356360#4"/>
    <trip id="truck141" type="truck_truck" depart="294.03" departLane="best" from="301867023#3-AddedOnRampEdge" to="410359601#4"/>
    <trip id="truck142" type="truck_truck" depart="296.11" departLane="best" departSpeed="max" from="-1191697369" to="301866675#4"/>
    <trip id="truck143" type="truck_truck" depart="298.20" departLane="best" from="1192812840" to="441998017#29"/>
    <trip id="truck144" type="truck_truck" depart="300.29" departLane="best" from="176676453#0" to="410348019#0"/>
    <trip id="truck145" type="truck_truck" depart="302.37" departLane="best" from="301867023#3-AddedOnRampEdge" to="1043471254"/>
    <trip id="truck146" type="truck_truck" depart="304.46" departLane="best" from="301866711#28" to="-28250326#1"/>
    <trip id="truck147" type="truck_truck" depart="306.54" departLane="best" from="410348019#4" to="410344189#2"/>
    <trip id="truck148" type="truck_truck" depart="308.63" departLane="best" from="-28287209#3" to="404960091#0"/>
    <trip id="truck151" type="truck_truck" depart="314.88" departLane="best" departSpeed="max" from="-1191697369" to="-391057703#0"/>
    <trip id="truck153" type="truck_truck" depart="319.05" departLane="best" from="722356357" to="1191697369"/>
    <trip id="truck154" type="truck_truck" depart="321.14" departLane="best" departSpeed="max" from="28250948" to="28118331#14"/>
    <trip id="truck155" type="truck_truck" depart="323.22" departLane="best" from="80445163#1" to="28247441#0"/>
    <trip id="truck156" type="truck_truck" depart="325.31" departLane="best" from="441998017#9" to="28250347#1"/>
    <trip id="truck157" type="truck_truck" depart="327.39" departLane="best" from="722361333#1" to="-293075488"/>
    <trip id="truck158" type="truck_truck" depart="329.48" departLane="best" from="711825950#1" to="1042329236#3"/>
    <trip id="truck159" type="truck_truck" depart="331.57" departLane="best" from="28246168" to="28151174#3"/>
    <trip id="truck160" type="truck_truck" depart="333.65" departLane="best" from="301866514#2" to="1345159823"/>
    <trip id="truck161" type="truck_truck" depart="335.74" departLane="best" from="28250324#1" to="28182240"/>
    <trip id="truck162" type="truck_truck" depart="337.82" departLane="best" departSpeed="max" from="-403509575" to="301866515#13"/>
    <trip id="truck163" type="truck_truck" depart="339.91" departLane="best" departSpeed="max" from="-1033113608" to="441998017#14"/>
    <trip id="truck164" type="truck_truck" depart="341.99" departLane="best" from="28181339#3" to="301866662#0"/>
    <trip id="truck166" type="truck_truck" depart="346.16" departLane="best" from="132951313#4" to="-28125043"/>
    <trip id="truck167" type="truck_truck" depart="348.25" departLane="best" from="1042329234#6" to="410343215"/>
    <trip id="truck168" type="truck_truck" depart="350.33" departLane="best" from="301866390#10" to="1193693468#1"/>
    <trip id="truck169" type="truck_truck" depart="352.42" departLane="best" departSpeed="max" from="1035941618" to="-28125043"/>
    <trip id="truck171" type="truck_truck" depart="356.59" departLane="best" from="-28247973#2" to="28150906#18"/>
    <trip id="truck172" type="truck_truck" depart="358.67" departLane="best" from="441998022#1" to="28287208#2"/>
    <trip id="truck173" type="truck_truck" depart="360.76" departLane="best" from="-410613714#1" to="28250957#1"/>
    <trip id="truck174" type="truck_truck" depart="362.84" departLane="best" from="1024989366" to="28247974#0"/>
    <trip id="truck175" type="truck_truck" depart="364.93" departLane="best" from="280670457#12" to="28250346"/>
    <trip id="truck176" type="truck_truck" depart="367.02" departLane="best" from="280670459#3" to="-515905304#0"/>
    <trip id="truck177" type="truck_truck" depart="369.10" departLane="best" from="711825951#8" to="-28287209#1"/>
    <trip id="truck178" type="truck_truck" depart="371.19" departLane="best" departSpeed="max" from="28125045" to="-28182242#4"/>
    <trip id="truck179" type="truck_truck" depart="373.27" departLane="best" from="28250939#0" to="176676453#7"/>
    <trip id="truck181" type="truck_truck" depart="377.44" departLane="best" from="28252112#1" to="-745499160"/>
    <trip id="truck182" type="truck_truck" depart="379.53" departLane="best" from="-28252111#0" to="-1268410978"/>
    <trip id="truck183" type="truck_truck" depart="381.61" departLane="best" departSpeed="max" from="-318507875#2" to="28179948#10"/>
    <trip id="truck184" type="truck_truck" depart="383.70" departLane="best" from="410343198#3" to="-28176243#1"/>
    <trip id="truck185" type="truck_truck" depart="385.78" departLane="best" from="229021481#1" to="-28251476#1"/>
    <trip id="truck186" type="truck_truck" depart="387.87" departLane="best" from="28172403#3" to="1033113608"/>
    <trip id="truck187" type="truck_truck" depart="389.95" departLane="best" from="28251468#1" to="1175300515#1"/>
    <trip id="truck188" type="truck_truck" depart="392.04" departLane="best" from="301866668#1" to="301866711#35"/>
    <trip id="truck189" type="truck_truck" depart="394.12" departLane="best" from="-28182243" to="28150906#29"/>
    <trip id="truck190" type="truck_truck" depart="396.21" departLane="best" departSpeed="max" from="-28250957#1" to="680218140"/>
    <trip id="truck193" type="truck_truck" depart="402.47" departLane="best" departSpeed="max" from="28118331#0" to="37974048#2"/>
    <trip id="truck194" type="truck_truck" depart="404.55" departLane="best" from="28252108#3" to="80676636#2"/>
    <trip id="truck195" type="truck_truck" depart="406.64" departLane="best" from="28250316#1" to="617649496"/>
    <trip id="truck196" type="truck_truck" depart="408.72" departLane="best" from="410600746#0" to="28250957#1"/>
    <trip id="truck197" type="truck_truck" depart="410.81" departLane="best" from="301866390#1" to="28182234#12"/>
    <trip id="truck199" type="truck_truck" depart="414.98" departLane="best" from="410608271#1" to="301866698#2"/>
    <trip id="truck204" type="truck_truck" depart="425.40" departLane="best" departSpeed="max" from="-543331071" to="158408900"/>
    <trip id="truck205" type="truck_truck" depart="427.49" departLane="best" from="28181343#2" to="-28250961#0"/>
    <trip id="truck206" type="truck_truck" depart="429.57" departLane="best" departSpeed="max" from="-299298535" to="301866112#1"/>
    <trip id="truck208" type="truck_truck" depart="433.75" departLane="best" departSpeed="max" from="203181746" to="28247969#1"/>
    <trip id="truck209" type="truck_truck" depart="435.83" departLane="best" from="229021481#4" to="441998018#0"/>
    <trip id="truck210" type="truck_truck" depart="437.92" departLane="best" departSpeed="max" from="229024914" to="413954731#1"/>
    <trip id="truck211" type="truck_truck" depart="440.00" departLane="best" departSpeed="max" from="28247445" to="301866112#4"/>
    <trip id="truck212" type="truck_truck" depart="442.09" departLane="best" from="410344188#10" to="301866711#24"/>
    <trip id="truck213" type="truck_truck" depart="444.17" departLane="best" departSpeed="max" from="159813492#0" to="-1190788104"/>
    <trip id="truck214" type="truck_truck" depart="446.26" departLane="best" departSpeed="max" from="1269046125" to="301866706"/>
    <trip id="truck216" type="truck_truck" depart="450.43" departLane="best" from="28182233#19" to="28250951#2"/>
    <trip id="truck217" type="truck_truck" depart="452.51" departLane="best" departSpeed="max" from="-28287208#2" to="685851054#1"/>
    <trip id="truck218" type="truck_truck" depart="454.60" departLane="best" from="28150906#18" to="-1268714262"/>
    <trip id="truck221" type="truck_truck" depart="460.85" departLane="best" from="28250341#1" to="-1268714262"/>
    <trip id="truck222" type="truck_truck" depart="462.94" departLane="best" departSpeed="max" from="196991468" to="28177411#6"/>
    <trip id="truck223" type="truck_truck" depart="465.03" departLane="best" departSpeed="max" from="-1191712781" to="-28252114#0"/>
    <trip id="truck224" type="truck_truck" depart="467.11" departLane="best" from="-28250342" to="28177412#5"/>
    <trip id="truck225" type="truck_truck" depart="469.20" departLane="best" from="-1299983274" to="280670459#14"/>
    <trip id="truck226" type="truck_truck" depart="471.28" departLane="best" departSpeed="max" from="-28284411#5" to="159813491#4"/>
    <trip id="truck227" type="truck_truck" depart="473.37" departLane="best" departSpeed="max" from="-403509575" to="-28182242#0"/>
    <trip id="truck228" type="truck_truck" depart="475.45" departLane="best" from="-1175300515#1" to="28247442#3"/>
    <trip id="truck229" type="truck_truck" depart="477.54" departLane="best" from="947383718#1" to="220518884#2"/>
    <trip id="truck230" type="truck_truck" depart="479.62" departLane="best" from="28250959" to="301867012#9"/>
    <trip id="truck231" type="truck_truck" depart="481.71" departLane="best" departSpeed="max" from="28250961#0" to="301866707#0"/>
    <trip id="truck232" type="truck_truck" depart="483.79" departLane="best" from="561900134#4" to="410359601#8"/>
    <trip id="truck233" type="truck_truck" depart="485.88" departLane="best" departSpeed="max" from="-1190074908" to="-28252112#0"/>
    <trip id="truck235" type="truck_truck" depart="490.05" departLane="best" from="28182241#2" to="685851053#1"/>
    <trip id="truck236" type="truck_truck" depart="492.13" departLane="best" departSpeed="max" from="28287208#0" to="301866711#28"/>
    <trip id="truck237" type="truck_truck" depart="494.22" departLane="best" from="301866667#0" to="-28250345#1"/>
    <trip id="truck239" type="truck_truck" depart="498.39" departLane="best" from="-28246158#2" to="-1268410978"/>
    <trip id="truck240" type="truck_truck" depart="500.48" departLane="best" from="1042329234#2" to="28287208#2"/>
    <trip id="truck241" type="truck_truck" depart="502.56" departLane="best" from="685851054#1" to="28118323#6"/>
    <trip id="truck244" type="truck_truck" depart="508.82" departLane="best" departSpeed="max" from="-28182240" to="301867001#1"/>
    <trip id="truck245" type="truck_truck" depart="510.90" departLane="best" from="410343198#4" to="28250949#0"/>
    <trip id="truck246" type="truck_truck" depart="512.99" departLane="best" departSpeed="max" from="-28247969#1" to="79794778#0"/>
    <trip id="truck247" type="truck_truck" depart="515.07" departLane="best" from="-28176243#1" to="28172403#1"/>
    <trip id="truck249" type="truck_truck" depart="519.24" departLane="best" from="28182242#3" to="685851053#0"/>
    <trip id="truck250" type="truck_truck" depart="521.33" departLane="best" from="28250940#2" to="410313404#14"/>
    <trip id="truck251" type="truck_truck" depart="523.41" departLane="best" from="28288283" to="28151372#0"/>
    <trip id="truck252" type="truck_truck" depart="525.50" departLane="best" from="301866515#20" to="685854924"/>
    <trip id="truck253" type="truck_truck" depart="527.58" departLane="best" departSpeed="max" from="-543331071" to="37985780#2"/>
    <trip id="truck254" type="truck_truck" depart="529.67" departLane="best" from="28181339#3" to="28181330#1"/>
    <trip id="truck255" type="truck_truck" depart="531.76" departLane="best" from="280670459#12" to="821619966#0"/>
    <trip id="truck256" type="truck_truck" depart="533.84" departLane="best" from="-441998022#4" to="410344188#12"/>
    <trip id="truck258" type="truck_truck" depart="538.01" departLane="best" from="410359601#4" to="1033113608"/>
    <trip id="truck259" type="truck_truck" depart="540.10" departLane="best" departSpeed="max" from="28118337" to="28250953#4"/>
    <trip id="truck260" type="truck_truck" depart="542.18" departLane="best" departSpeed="max" from="159813492#0" to="-1268714262"/>
    <trip id="truck261" type="truck_truck" depart="544.27" departLane="best" from="410343198#6" to="301866112#1"/>
    <trip id="truck262" type="truck_truck" depart="546.35" departLane="best" departSpeed="max" from="-28284411#5" to="367162765"/>
    <trip id="truck264" type="truck_truck" depart="550.52" departLane="best" departSpeed="max" from="28287208#0" to="1190788105"/>
    <trip id="truck265" type="truck_truck" depart="552.61" departLane="best" departSpeed="max" from="-1035941617#1" to="561900134#5"/>
    <trip id="truck266" type="truck_truck" depart="554.69" departLane="best" from="28176238#0" to="301866662#1"/>
    <trip id="truck267" type="truck_truck" depart="556.78" departLane="best" departSpeed="max" from="28150911" to="-301866707#8"/>
    <trip id="truck269" type="truck_truck" depart="560.95" departLane="best" from="28151174#2" to="318507875#2"/>
    <trip id="truck271" type="truck_truck" depart="565.12" departLane="best" from="28247442#0" to="28177417#8"/>
    <trip id="truck272" type="truck_truck" depart="567.21" departLane="best" from="28179948#4" to="28150906#29"/>
    <trip id="truck273" type="truck_truck" depart="569.29" departLane="best" from="-301866665#0" to="176676447#1"/>
    <trip id="truck274" type="truck_truck" depart="571.38" departLane="best" from="28287209#1" to="1175300515#0"/>