<?xml version="1.0" encoding="UTF-8"?>

<!-- generated on 2025-04-21 22:42:03.617402 by osmWebWizard.py v1_22_0+0002-63e50f52594
<configuration>
    <net-file value="C:\Users\micha\Sumo\2025-04-21-22-41-52\osm.net.xml.gz"/>
    <output-trip-file value="C:\Users\micha\Sumo\2025-04-21-22-41-52\osm.passenger.trips.xml"/>
    <route-file value="C:\Users\micha\Sumo\2025-04-21-22-41-52\osm.passenger.rou.xml"/>
    <prefix value="veh"/>
    <trip-attributes value="departLane=&quot;best&quot;"/>
    <fringe-start-attributes value="departSpeed=&quot;max&quot;"/>
    <vehicle-class value="passenger"/>
    <lanes value="True"/>
    <fringe-factor value="20"/>
    <allow-fringe.min-length value="1000.0"/>
    <via-edge-types value="highway.motorway,highway.motorway_link,highway.trunk_link,highway.primary_link,highway.secondary_link,highway.tertiary_link"/>
    <min-distance value="300.0"/>
    <min-distance.fringe value="10.0"/>
    <remove-loops value="True"/>
    <validate value="True"/>
    <insertion-density value="12.0"/>
</configuration>
-->

<!-- generated on 2025-04-21 22:42:02 by Eclipse SUMO duarouter Version 1.22.0
<duarouterConfiguration xmlns:xsi="http://www.w3.org/2001/XMLSchema-instance" xsi:noNamespaceSchemaLocation="http://sumo.dlr.de/xsd/duarouterConfiguration.xsd">

    <input>
        <net-file value="C:\Users\micha\Sumo\2025-04-21-22-41-52\osm.net.xml.gz"/>
        <route-files value="C:\Users\micha\Sumo\2025-04-21-22-41-52\osm.passenger.trips.xml"/>
    </input>

    <output>
        <output-file value="C:\Users\micha\Sumo\2025-04-21-22-41-52\osm.passenger.trips.xml.tmp"/>
        <alternatives-output value="NUL"/>
        <write-trips value="true"/>
    </output>

    <processing>
        <remove-loops value="true"/>
    </processing>

    <time>
        <begin value="0.0"/>
        <end value="3600.0"/>
    </time>

    <report>
        <no-warnings value="true"/>
        <ignore-errors value="true"/>
        <no-step-log value="true"/>
    </report>

</duarouterConfiguration>
-->

<routes xmlns:xsi="http://www.w3.org/2001/XMLSchema-instance" xsi:noNamespaceSchemaLocation="http://sumo.dlr.de/xsd/routes_file.xsd">
    <vType id="veh_passenger" vClass="passenger"/>
    <trip id="veh1" type="veh_passenger" depart="1.39" departLane="best" from="1042329234#8" to="1190074908"/>
    <trip id="veh2" type="veh_passenger" depart="2.78" departLane="best" departSpeed="max" from="301866710#0" to="301866698#16"/>
    <trip id="veh3" type="veh_passenger" depart="4.17" departLane="best" from="413956385" to="-28247969#0"/>
    <trip id="veh4" type="veh_passenger" depart="5.56" departLane="best" from="280670459#16" to="-1269046125"/>
    <trip id="veh5" type="veh_passenger" depart="6.95" departLane="best" departSpeed="max" from="-403509575" to="28247969#1"/>
    <trip id="veh6" type="veh_passenger" depart="8.34" departLane="best" departSpeed="max" from="-1191697369" to="1035941616"/>
    <trip id="veh8" type="veh_passenger" depart="11.12" departLane="best" departSpeed="max" from="-403509575" to="28254227#1"/>
    <trip id="veh9" type="veh_passenger" depart="12.51" departLane="best" from="410341119#1" to="-1193495978"/>
    <trip id="veh10" type="veh_passenger" depart="13.90" departLane="best" from="711825950#1" to="280670459#11"/>
    <trip id="veh11" type="veh_passenger" depart="15.29" departLane="best" departSpeed="max" from="-28181330#1" to="-28250347#2"/>
    <trip id="veh12" type="veh_passenger" depart="16.68" departLane="best" from="410359601#1" to="28287207#5"/>
    <trip id="veh13" type="veh_passenger" depart="18.07" departLane="best" from="28177417#9" to="711877139#1"/>
    <trip id="veh14" type="veh_passenger" depart="19.46" departLane="best" from="220518884#3" to="28250957#1"/>
    <trip id="veh15" type="veh_passenger" depart="20.85" departLane="best" from="410344188#5" to="301866112#2"/>
    <trip id="veh16" type="veh_passenger" depart="22.24" departLane="best" departSpeed="max" from="410363681#0" to="28252122#0"/>
    <trip id="veh18" type="veh_passenger" depart="25.02" departLane="best" departSpeed="max" from="-43007533" to="197082255#1"/>
    <trip id="veh20" type="veh_passenger" depart="27.80" departLane="best" from="28182242#4" to="176676447#1"/>
    <trip id="veh22" type="veh_passenger" depart="30.58" departLane="best" departSpeed="max" from="199712667" to="1036461659"/>
    <trip id="veh23" type="veh_passenger" depart="31.97" departLane="best" departSpeed="max" from="1035941618" to="441998022#3"/>
    <trip id="veh25" type="veh_passenger" depart="34.76" departLane="best" departSpeed="max" from="-28252109#1" to="301867023#4"/>
    <trip id="veh26" type="veh_passenger" depart="36.15" departLane="best" departSpeed="max" from="-28251469#1" to="28148997"/>
    <trip id="veh28" type="veh_passenger" depart="38.93" departLane="best" departSpeed="max" from="28182234#0" to="301866698#8"/>
    <trip id="veh29" type="veh_passenger" depart="40.32" departLane="best" from="410348029#0" to="408391644"/>
    <trip id="veh30" type="veh_passenger" depart="41.71" departLane="best" departSpeed="max" from="1268410978" to="158408900"/>
    <trip id="veh31" type="veh_passenger" depart="43.10" departLane="best" departSpeed="max" from="-318507875#2" to="561898829"/>
    <trip id="veh32" type="veh_passenger" depart="44.49" departLane="best" departSpeed="max" from="410608271#0" to="229024915"/>
    <trip id="veh34" type="veh_passenger" depart="47.27" departLane="best" departSpeed="max" from="413958886#0" to="28181330#1"/>
    <trip id="veh36" type="veh_passenger" depart="50.05" departLane="best" departSpeed="max" from="28182241#0" to="1345159823"/>
    <trip id="veh37" type="veh_passenger" depart="51.44" departLane="best" departSpeed="max" from="28247445" to="28151171#1"/>
    <trip id="veh38" type="veh_passenger" depart="52.83" departLane="best" departSpeed="max" from="229024914" to="1043471254"/>
    <trip id="veh39" type="veh_passenger" depart="54.22" departLane="best" from="878058516#1" to="-28247973#0"/>
    <trip id="veh41" type="veh_passenger" depart="57.00" departLane="best" departSpeed="max" from="-28247442#3" to="301866390#7"/>
    <trip id="veh42" type="veh_passenger" depart="58.39" departLane="best" from="391057703#0" to="28151374"/>
    <trip id="veh43" type="veh_passenger" depart="59.78" departLane="best" departSpeed="max" from="-1345159823" to="28148997"/>
    <trip id="veh44" type="veh_passenger" depart="61.17" departLane="best" from="821619966#5" to="28250349"/>
    <trip id="veh45" type="veh_passenger" depart="62.56" departLane="best" departSpeed="max" from="745499160" to="410359603#2"/>
    <trip id="veh46" type="veh_passenger" depart="63.95" departLane="best" departSpeed="max" from="-1035941617#1" to="301867013#1"/>
    <trip id="veh47" type="veh_passenger" depart="65.34" departLane="best" from="301866390#3" to="28250945"/>
    <trip id="veh48" type="veh_passenger" depart="66.73" departLane="best" departSpeed="max" from="1035941618" to="301866515#34"/>
    <trip id="veh49" type="veh_passenger" depart="68.12" departLane="best" from="28247446" to="28176232"/>
    <trip id="veh51" type="veh_passenger" depart="70.90" departLane="best" departSpeed="max" from="410608271#0" to="1345159823"/>
    <trip id="veh52" type="veh_passenger" depart="72.29" departLane="best" departSpeed="max" from="28150911" to="-782173563#1"/>
    <trip id="veh53" type="veh_passenger" depart="73.68" departLane="best" departSpeed="max" from="413958886#0" to="410366951"/>
    <trip id="veh54" type="veh_passenger" depart="75.07" departLane="best" departSpeed="max" from="1193495978" to="301866515#27"/>
    <trip id="veh55" type="veh_passenger" depart="76.46" departLane="best" from="28250347#0" to="-391057703#0"/>
    <trip id="veh57" type="veh_passenger" depart="79.24" departLane="best" from="301867023#3-AddedOnRampEdge" to="28250349"/>
    <trip id="veh58" type="veh_passenger" depart="80.63" departLane="best" departSpeed="max" from="-1033113608" to="280670456#5"/>
    <trip id="veh59" type="veh_passenger" depart="82.02" departLane="best" departSpeed="max" from="-1036461659" to="441998017#2"/>
    <trip id="veh60" type="veh_passenger" depart="83.41" departLane="best" departSpeed="max" from="410608271#0" to="410348026#2"/>
    <trip id="veh61" type="veh_passenger" depart="84.80" departLane="best" departSpeed="max" from="1193693468#0" to="-203181746"/>
    <trip id="veh62" type="veh_passenger" depart="86.19" departLane="best" departSpeed="max" from="410608271#0" to="561900134#6"/>
    <trip id="veh63" type="veh_passenger" depart="87.58" departLane="best" departSpeed="max" from="28125045" to="28182666"/>
    <trip id="veh66" type="veh_passenger" depart="91.75" departLane="best" from="28150906#14" to="28250953#4"/>
    <trip id="veh67" type="veh_passenger" depart="93.14" departLane="best" from="1029020401#3" to="410366951"/>
    <trip id="veh68" type="veh_passenger" depart="94.53" departLane="best" from="280670459#18" to="1042329234#2"/>
    <trip id="veh69" type="veh_passenger" depart="95.92" departLane="best" from="28179948#3" to="318507875#2"/>
    <trip id="veh70" type="veh_passenger" depart="97.31" departLane="best" departSpeed="max" from="-299298535" to="229024629"/>
    <trip id="veh71" type="veh_passenger" depart="98.70" departLane="best" from="821619966#2" to="301866664#5"/>
    <trip id="veh72" type="veh_passenger" depart="100.10" departLane="best" from="28112650#2" to="28250330#5"/>
    <trip id="veh73" type="veh_passenger" depart="101.49" departLane="best" from="-28247974#2" to="1190074908"/>
    <trip id="veh74" type="veh_passenger" depart="102.88" departLane="best" from="159813491#11" to="28254227#1"/>
    <trip id="veh75" type="veh_passenger" depart="104.27" departLane="best" departSpeed="max" from="-43007533" to="1091867612#0"/>
    <trip id="veh76" type="veh_passenger" depart="105.66" departLane="best" departSpeed="max" from="-197082255#1" to="301866391#4"/>
    <trip id="veh77" type="veh_passenger" depart="107.05" departLane="best" departSpeed="max" from="-43007533" to="413956386#5"/>
    <trip id="veh78" type="veh_passenger" depart="108.44" departLane="best" departSpeed="max" from="410363681#0" to="-28181333#4"/>
    <trip id="veh79" type="veh_passenger" depart="109.83" departLane="best" departSpeed="max" from="-561898829" to="301866668#7"/>
    <trip id="veh81" type="veh_passenger" depart="112.61" departLane="best" from="441998017#28" to="28252109#1"/>
    <trip id="veh82" type="veh_passenger" depart="114.00" departLane="best" from="28150906#10" to="410313405"/>
    <trip id="veh84" type="veh_passenger" depart="116.78" departLane="best" departSpeed="max" from="-28182240" to="28171709#1"/>
    <trip id="veh85" type="veh_passenger" depart="118.17" departLane="best" from="280670459#19" to="28182233#2"/>
    <trip id="veh86" type="veh_passenger" depart="119.56" departLane="best" from="301866698#28" to="301866675#8"/>
    <trip id="veh87" type="veh_passenger" depart="120.95" departLane="best" departSpeed="max" from="80676637" to="-28250934#2"/>
    <trip id="veh88" type="veh_passenger" depart="122.34" departLane="best" from="280670456#11" to="280670459#16"/>
    <trip id="veh90" type="veh_passenger" depart="125.12" departLane="best" from="-28287208#0" to="28177417#0"/>
    <trip id="veh91" type="veh_passenger" depart="126.51" departLane="best" from="280670459#16" to="176676453#10"/>
    <trip id="veh92" type="veh_passenger" depart="127.90" departLane="best" departSpeed="max" from="-685854924" to="440535190#8"/>
    <trip id="veh93" type="veh_passenger" depart="129.29" departLane="best" from="28118323#6" to="28176232"/>
    <trip id="veh94" type="veh_passenger" depart="130.68" departLane="best" from="947383718#0" to="410348026#3"/>
    <trip id="veh95" type="veh_passenger" depart="132.07" departLane="best" departSpeed="max" from="745499160" to="441998017#12"/>
    <trip id="veh97" type="veh_passenger" depart="134.85" departLane="best" from="28150906#4" to="1042329234#5"/>
    <trip id="veh98" type="veh_passenger" depart="136.24" departLane="best" from="28150906#29" to="-203181746"/>
    <trip id="veh99" type="veh_passenger" depart="137.63" departLane="best" from="220518884#3" to="80445163#0"/>
    <trip id="veh100" type="veh_passenger" depart="139.02" departLane="best" from="1029020401#4" to="410313404#7"/>
    <trip id="veh101" type="veh_passenger" depart="140.41" departLane="best" from="28118331#5" to="28151377"/>
    <trip id="veh102" type="veh_passenger" depart="141.80" departLane="best" from="711825951#0" to="301866667#7"/>
    <trip id="veh103" type="veh_passenger" depart="143.19" departLane="best" departSpeed="max" from="28182234#0" to="176676453#4"/>
    <trip id="veh104" type="veh_passenger" depart="144.58" departLane="best" departSpeed="max" from="-28250957#1" to="228038463"/>
    <trip id="veh105" type="veh_passenger" depart="145.97" departLane="best" from="722361334#2" to="28252122#0"/>
    <trip id="veh106" type="veh_passenger" depart="147.36" departLane="best" from="28181335#1" to="37985780#10"/>
    <trip id="veh107" type="veh_passenger" depart="148.75" departLane="best" departSpeed="max" from="-1300054813" to="28253276#2"/>
    <trip id="veh108" type="veh_passenger" depart="150.14" departLane="best" departSpeed="max" from="28150911" to="410348032"/>
    <trip id="veh109" type="veh_passenger" depart="151.53" departLane="best" departSpeed="max" from="-28250957#1" to="680218140"/>
    <trip id="veh111" type="veh_passenger" depart="154.31" departLane="best" departSpeed="max" from="28250318#0" to="301866698#11"/>
    <trip id="veh112" type="veh_passenger" depart="155.70" departLane="best" departSpeed="max" from="-543331071" to="-28252112#0"/>
    <trip id="veh114" type="veh_passenger" depart="158.48" departLane="best" departSpeed="max" from="28250318#0" to="301866113"/>
    <trip id="veh115" type="veh_passenger" depart="159.87" departLane="best" from="280670459#11" to="28253276#2"/>
    <trip id="veh116" type="veh_passenger" depart="161.26" departLane="best" from="28176235#7" to="441998017#9"/>
    <trip id="veh117" type="veh_passenger" depart="162.65" departLane="best" departSpeed="max" from="-299298535" to="301867011#5"/>
    <trip id="veh118" type="veh_passenger" depart="164.04" departLane="best" departSpeed="max" from="-561898829" to="28150906#24"/>
    <trip id="veh120" type="veh_passenger" depart="166.83" departLane="best" departSpeed="max" from="1268410978" to="37985780#2"/>
    <trip id="veh121" type="veh_passenger" depart="168.22" departLane="best" departSpeed="max" from="-197082255#1" to="28181330#1"/>
    <trip id="veh122" type="veh_passenger" depart="169.61" departLane="best" from="883846358#1" to="821619966#4"/>
    <trip id="veh123" type="veh_passenger" depart="171.00" departLane="best" departSpeed="max" from="-197082255#1" to="1042329234#4"/>
    <trip id="veh124" type="veh_passenger" depart="172.39" departLane="best" from="1029020401#4" to="441998017#5"/>
    <trip id="veh126" type="veh_passenger" depart="175.17" departLane="best" departSpeed="max" from="199712667" to="-401286976"/>
    <trip id="veh127" type="veh_passenger" depart="176.56" departLane="best" from="-410344191#1" to="301866711#22"/>
    <trip id="veh128" type="veh_passenger" depart="177.95" departLane="best" from="28250939#0" to="80445163#4"/>
    <trip id="veh130" type="veh_passenger" depart="180.73" departLane="best" from="410343201#0" to="229020885#0"/>
    <trip id="veh131" type="veh_passenger" depart="182.12" departLane="best" from="28287209#1" to="543331071"/>
    <trip id="veh132" type="veh_passenger" depart="183.51" departLane="best" departSpeed="max" from="-28250349" to="28252104#1"/>
    <trip id="veh133" type="veh_passenger" depart="184.90" departLane="best" from="-28247442#1" to="28250957#1"/>
    <trip id="veh134" type="veh_passenger" depart="186.29" departLane="best" from="1042329234#4" to="28287208#2"/>
    <trip id="veh135" type="veh_passenger" depart="187.68" departLane="best" from="301866675#12" to="1035941619#1"/>
    <trip id="veh136" type="veh_passenger" depart="189.07" departLane="best" departSpeed="max" from="28252112#0" to="1345159823"/>
    <trip id="veh137" type="veh_passenger" depart="190.46" departLane="best" departSpeed="max" from="28150911" to="413956386#5"/>
    <trip id="veh138" type="veh_passenger" depart="191.85" departLane="best" from="410359599" to="-28250318#0"/>
    <trip id="veh139" type="veh_passenger" depart="193.24" departLane="best" from="280670459#19" to="176674737#2"/>
    <trip id="veh140" type="veh_passenger" depart="194.63" departLane="best" departSpeed="max" from="-1033113608" to="408391644"/>
    <trip id="veh141" type="veh_passenger" depart="196.02" departLane="best" departSpeed="max" from="28252112#0" to="1345159823"/>
    <trip id="veh142" type="veh_passenger" depart="197.41" departLane="best" departSpeed="max" from="301866710#0" to="28250957#1"/>
    <trip id="veh143" type="veh_passenger" depart="198.80" departLane="best" from="28150906#5" to="-1193495978"/>
    <trip id="veh145" type="veh_passenger" depart="201.58" departLane="best" from="413956389#4" to="28250953#0"/>
    <trip id="veh146" type="veh_passenger" depart="202.97" departLane="best" from="410344191#3" to="28253276#2"/>
    <trip id="veh148" type="veh_passenger" depart="205.75" departLane="best" departSpeed="max" from="1193693468#0" to="413956384#0"/>
    <trip id="veh149" type="veh_passenger" depart="207.14" departLane="best" departSpeed="max" from="401267515" to="410359603#2"/>
    <trip id="veh150" type="veh_passenger" depart="208.53" departLane="best" from="413956388#2" to="1036461659"/>
    <trip id="veh151" type="veh_passenger" depart="209.92" departLane="best" departSpeed="max" from="-685854924" to="-28250948"/>
    <trip id="veh152" type="veh_passenger" depart="211.31" departLane="best" from="301867023#4" to="410608275#1"/>
    <trip id="veh153" type="veh_passenger" depart="212.70" departLane="best" from="280670456#6" to="301866390#1"/>
    <trip id="veh154" type="veh_passenger" depart="214.09" departLane="best" departSpeed="max" from="-28250957#1" to="441998017#24"/>
    <trip id="veh155" type="veh_passenger" depart="215.48" departLane="best" departSpeed="max" from="410363681#0" to="722356360#4"/>
    <trip id="veh157" type="veh_passenger" depart="218.26" departLane="best" from="-1190788104" to="360771864"/>
    <trip id="veh158" type="veh_passenger" depart="219.65" departLane="best" departSpeed="max" from="154964969" to="441998017#26"/>
    <trip id="veh159" type="veh_passenger" depart="221.04" departLane="best" from="408355428#0" to="410366951"/>
    <trip id="veh160" type="veh_passenger" depart="222.43" departLane="best" from="410341119#2" to="158408900"/>
    <trip id="veh162" type="veh_passenger" depart="225.21" departLane="best" departSpeed="max" from="410608271#0" to="410359601#5"/>
    <trip id="veh163" type="veh_passenger" depart="226.60" departLane="best" from="-410313405" to="410344188#13"/>
    <trip id="veh164" type="veh_passenger" depart="227.99" departLane="best" departSpeed="max" from="28118337" to="229021481#3"/>
    <trip id="veh165" type="veh_passenger" depart="229.38" departLane="best" departSpeed="max" from="401267515" to="1191697369"/>
    <trip id="veh166" type="veh_passenger" depart="230.77" departLane="best" departSpeed="max" from="-1190074908" to="1033113608"/>
    <trip id="veh167" type="veh_passenger" depart="232.17" departLane="best" departSpeed="max" from="154964969" to="410366951"/>
    <trip id="veh168" type="veh_passenger" depart="233.56" departLane="best" from="722361334#0" to="176676453#11"/>
    <trip id="veh170" type="veh_passenger" depart="236.34" departLane="best" departSpeed="max" from="80676637" to="28250945"/>
    <trip id="veh171" type="veh_passenger" depart="237.73" departLane="best" from="-441998018#0" to="28252104#1"/>
    <trip id="veh172" type="veh_passenger" depart="239.12" departLane="best" departSpeed="max" from="745499160" to="782173563#0"/>
    <trip id="veh173" type="veh_passenger" depart="240.51" departLane="best" from="722356360#3" to="157936059#1"/>
    <trip id="veh174" type="veh_passenger" depart="241.90" departLane="best" departSpeed="max" from="-28247442#3" to="28176232"/>
    <trip id="veh175" type="veh_passenger" depart="243.29" departLane="best" from="301866698#26" to="229024915"/>
    <trip id="veh176" type="veh_passenger" depart="244.68" departLane="best" from="28250340#0" to="28250316#2"/>
    <trip id="veh177" type="veh_passenger" depart="246.07" departLane="best" from="229021481#2" to="28252119"/>
    <trip id="veh178" type="veh_passenger" depart="247.46" departLane="best" from="1021305072#0" to="301866711#6"/>
    <trip id="veh179" type="veh_passenger" depart="248.85" departLane="best" departSpeed="max" from="-1033113608" to="159813491#14"/>
    <trip id="veh180" type="veh_passenger" depart="250.24" departLane="best" from="28179948#20" to="301867012#7"/>
    <trip id="veh181" type="veh_passenger" depart="251.63" departLane="best" departSpeed="max" from="301866710#0" to="301866675#13"/>
    <trip id="veh182" type="veh_passenger" depart="253.02" departLane="best" departSpeed="max" from="196991468" to="28181330#0"/>
    <trip id="veh183" type="veh_passenger" depart="254.41" departLane="best" from="28287210#1" to="280670457#2"/>
    <trip id="veh184" type="veh_passenger" depart="255.80" departLane="best" departSpeed="max" from="1268410978" to="410348032"/>
    <trip id="veh185" type="veh_passenger" depart="257.19" departLane="best" from="301866675#5" to="229020885#2"/>
    <trip id="veh186" type="veh_passenger" depart="258.58" departLane="best" departSpeed="max" from="1268410976" to="28150913"/>
    <trip id="veh187" type="veh_passenger" depart="259.97" departLane="best" from="280670456#10" to="228038463"/>
    <trip id="veh188" type="veh_passenger" depart="261.36" departLane="best" departSpeed="max" from="-28250346" to="28151374"/>
    <trip id="veh189" type="veh_passenger" depart="262.75" departLane="best" from="441998022#2" to="301866698#18"/>
    <trip id="veh190" type="veh_passenger" depart="264.14" departLane="best" from="413956389#3" to="299298535"/>
    <trip id="veh192" type="veh_passenger" depart="266.92" departLane="best" departSpeed="max" from="-1033113608" to="28172408#0"/>
    <trip id="veh193" type="veh_passenger" depart="268.31" departLane="best" from="280670459#31" to="28252122#0"/>
    <trip id="veh195" type="veh_passenger" depart="271.09" departLane="best" from="28118323#4" to="1042329234#5"/>
    <trip id="veh196" type="veh_passenger" depart="272.48" departLane="best" from="28150906#11" to="413956384#2"/>
    <trip id="veh197" type="veh_passenger" depart="273.87" departLane="best" departSpeed="max" from="401267515" to="-515905304#0"/>
    <trip id="veh198" type="veh_passenger" depart="275.26" departLane="best" departSpeed="max" from="28125045" to="28250325#3"/>
    <trip id="veh199" type="veh_passenger" depart="276.65" departLane="best" from="-28252109#0" to="280670459#1"/>
    <trip id="veh200" type="veh_passenger" depart="278.04" departLane="best" from="410343201#2" to="37985780#16"/>
    <trip id="veh202" type="veh_passenger" depart="280.82" departLane="best" departSpeed="max" from="-293075487" to="-1268410978"/>
    <trip id="veh203" type="veh_passenger" depart="282.21" departLane="best" departSpeed="max" from="-666022060#1" to="28182240"/>
    <trip id="veh204" type="veh_passenger" depart="283.60" departLane="best" from="410359601#4" to="-28182242#2"/>
    <trip id="veh205" type="veh_passenger" depart="284.99" departLane="best" from="280670457#6" to="301866391#2"/>
    <trip id="veh206" type="veh_passenger" depart="286.38" departLane="best" from="28287209#0" to="301866707#2"/>
    <trip id="veh209" type="veh_passenger" depart="290.55" departLane="best" from="301866711#19" to="408391644"/>
    <trip id="veh210" type="veh_passenger" depart="291.94" departLane="best" from="-28252114#1" to="680218140"/>
    <trip id="veh211" type="veh_passenger" depart="293.33" departLane="best" from="28172408#3" to="197081389"/>
    <trip id="veh212" type="veh_passenger" depart="294.72" departLane="best" departSpeed="max" from="-685854924" to="410348032"/>
    <trip id="veh213" type="veh_passenger" depart="296.11" departLane="best" from="28118331#9" to="410341119#1"/>
    <trip id="veh214" type="veh_passenger" depart="297.50" departLane="best" departSpeed="max" from="28489881#0" to="80446446"/>
    <trip id="veh215" type="veh_passenger" depart="298.90" departLane="best" departSpeed="max" from="28250318#0" to="666022060#1"/>
    <trip id="veh216" type="veh_passenger" depart="300.29" departLane="best" from="413956384#2" to="293075487"/>
    <trip id="veh217" type="veh_passenger" depart="301.68" departLane="best" from="301866675#4" to="28247442#3"/>
    <trip id="veh218" type="veh_passenger" depart="303.07" departLane="best" from="410344188#9" to="28250953#4"/>
    <trip id="veh219" type="veh_passenger" depart="304.46" departLane="best" from="413956387" to="367162765"/>
    <trip id="veh220" type="veh_passenger" depart="305.85" departLane="best" from="28150906#13" to="132951298"/>
    <trip id="veh221" type="veh_passenger" depart="307.24" departLane="best" departSpeed="max" from="-685854924" to="301866515#22"/>
    <trip id="veh222" type="veh_passenger" depart="308.63" departLane="best" from="301867011#4" to="28250341#1"/>
    <trip id="veh223" type="veh_passenger" depart="310.02" departLane="best" from="28250961#1" to="159813491#7"/>
    <trip id="veh225" type="veh_passenger" depart="312.80" departLane="best" from="1042329234#2" to="280670456#0"/>
    <trip id="veh226" type="veh_passenger" depart="314.19" departLane="best" from="28179948#7" to="-293075488"/>
    <trip id="veh227" type="veh_passenger" depart="315.58" departLane="best" departSpeed="max" from="-43007533" to="301866706"/>
    <trip id="veh229" type="veh_passenger" depart="318.36" departLane="best" from="280670456#8" to="28250952"/>
    <trip id="veh230" type="veh_passenger" depart="319.75" departLane="best" from="280670457#8" to="1036461659"/>
    <trip id="veh231" type="veh_passenger" depart="321.14" departLane="best" from="280670459#13" to="413956386#4"/>
    <trip id="veh232" type="veh_passenger" depart="322.53" departLane="best" departSpeed="max" from="28247445" to="301866706"/>
    <trip id="veh233" type="veh_passenger" depart="323.92" departLane="best" departSpeed="max" from="410363681#0" to="408391644"/>
    <trip id="veh234" type="veh_passenger" depart="325.31" departLane="best" from="229020885#2" to="-1193473050"/>
    <trip id="veh235" type="veh_passenger" depart="326.70" departLane="best" from="176674737#2" to="37985780#6"/>
    <trip id="veh236" type="veh_passenger" depart="328.09" departLane="best" departSpeed="max" from="410363681#0" to="680218137#0"/>
    <trip id="veh237" type="veh_passenger" depart="329.48" departLane="best" from="280670459#11" to="37985780#1"/>
    <trip id="veh238" type="veh_passenger" depart="330.87" departLane="best" from="28182233#12" to="28287207#2"/>
    <trip id="veh239" type="veh_passenger" depart="332.26" departLane="best" departSpeed="max" from="-403509575" to="1043471254"/>
    <trip id="veh240" type="veh_passenger" depart="333.65" departLane="best" from="280670459#9" to="-1269046125"/>
    <trip id="veh241" type="veh_passenger" depart="335.04" departLane="best" from="158408272#0" to="301866698#22"/>
    <trip id="veh244" type="veh_passenger" depart="339.21" departLane="best" from="28250959" to="-1268714262"/>
    <trip id="veh245" type="veh_passenger" depart="340.60" departLane="best" departSpeed="max" from="229024914" to="28251472"/>
    <trip id="veh246" type="veh_passenger" depart="341.99" departLane="best" departSpeed="max" from="-1191697369" to="301866515#38"/>
    <trip id="veh247" type="veh_passenger" depart="343.38" departLane="best" from="-28250934#3" to="28181343#2"/>
    <trip id="veh248" type="veh_passenger" depart="344.77" departLane="best" departSpeed="max" from="-1193693468#1" to="28148997"/>
    <trip id="veh249" type="veh_passenger" depart="346.16" departLane="best" departSpeed="max" from="-318507875#2" to="280670457#0"/>
    <trip id="veh250" type="veh_passenger" depart="347.55" departLane="best" from="301867001#4" to="28148997"/>
    <trip id="veh251" type="veh_passenger" depart="348.94" departLane="best" from="301866711#21" to="410348026#2"/>
    <trip id="veh252" type="veh_passenger" depart="350.33" departLane="best" from="-79794778#1" to="-28247445"/>
    <trip id="veh253" type="veh_passenger" depart="351.72" departLane="best" departSpeed="max" from="-1036461659" to="-28250946#2"/>
    <trip id="veh254" type="veh_passenger" depart="353.11" departLane="best" from="947383718#1" to="280670459#4"/>
    <trip id="veh257" type="veh_passenger" depart="357.28" departLane="best" from="-1175300515#0" to="-391057703#0"/>
    <trip id="veh258" type="veh_passenger" depart="358.67" departLane="best" departSpeed="max" from="-28250346" to="301866668#8"/>
    <trip id="veh259" type="veh_passenger" depart="360.06" departLane="best" from="28182241#1" to="1043471253"/>
    <trip id="veh260" type="veh_passenger" depart="361.45" departLane="best" from="301866515#38" to="408391644"/>
    <trip id="veh261" type="veh_passenger" depart="362.84" departLane="best" from="-28251477" to="28287208#2"/>
    <trip id="veh262" type="veh_passenger" depart="364.23" departLane="best" from="301866711#1" to="-28252103#0"/>
    <trip id="veh264" type="veh_passenger" depart="367.02" departLane="best" departSpeed="max" from="-28247442#3" to="-1268714262"/>
    <trip id="veh265" type="veh_passenger" depart="368.41" departLane="best" departSpeed="max" from="1268410976" to="301866698#18"/>
    <trip id="veh266" type="veh_passenger" depart="369.80" departLane="best" from="711825951#6" to="28150906#26"/>
    <trip id="veh267" type="veh_passenger" depart="371.19" departLane="best" from="301866668#3" to="-28246164#0"/>