<?xml version="1.0" encoding="UTF-8"?>

<!-- generated on 2025-04-20 00:15:53.368934 by randomTrips.py v1_22_0+0002-63e50f52594
<configuration>
    <net-file value="osm.net.xml.gz"/>
    <output-trip-file value="osm.truck.trips.xml"/>
    <route-file value="osm.truck.rou.xml"/>
    <prefix value="truck"/>
    <trip-attributes value="departLane=&quot;best&quot;"/>
    <fringe-start-attributes value="departSpeed=&quot;max&quot;"/>
    <vehicle-class value="truck"/>
    <fringe-factor value="5"/>
    <vclass value="truck"/>
    <via-edge-types value="highway.motorway,highway.motorway_link,highway.trunk_link,highway.primary_link,highway.secondary_link,highway.tertiary_link"/>
    <min-distance value="600.0"/>
    <min-distance.fringe value="10.0"/>
    <remove-loops value="True"/>
    <validate value="True"/>
    <insertion-density value="9.0"/>
</configuration>
-->

<!-- generated on 2025-04-20 00:15:53 by Eclipse SUMO duarouter Version 1.22.0
<duarouterConfiguration xmlns:xsi="http://www.w3.org/2001/XMLSchema-instance" xsi:noNamespaceSchemaLocation="http://sumo.dlr.de/xsd/duarouterConfiguration.xsd">

    <input>
        <net-file value="osm.net.xml.gz"/>
        <route-files value="osm.truck.trips.xml"/>
    </input>

    <output>
        <output-file value="osm.truck.rou.xml"/>
        <alternatives-output value="NUL"/>
    </output>

    <processing>
        <remove-loops value="true"/>
    </processing>

    <time>
        <begin value="0.0"/>
        <end value="3600.0"/>
    </time>

    <report>
        <no-warnings value="true"/>
        <ignore-errors value="true"/>
        <no-step-log value="true"/>
    </report>

</duarouterConfiguration>
-->

<routes xmlns:xsi="http://www.w3.org/2001/XMLSchema-instance" xsi:noNamespaceSchemaLocation="http://sumo.dlr.de/xsd/routes_file.xsd">
    <vType id="truck_truck" vClass="truck"/>
    <vehicle id="truck0" type="truck_truck" depart="0.00" departLane="best" departSpeed="max">
        <route edges="28250330#0 28250330#1 28177411#6-AddedOnRampEdge 28177411#6 176676453 176676447#0 410359597 80446446 410359599 28172403#1 28118323#8 28112650#0 1042329234#0 1042329234#2 1042329234#3 1042329234#4 1042329234#7 1170476909#0 301866515#1 301866515#4 301866515#5 301866515#8 -1269046125"/>
    </vehicle>
    <vehicle id="truck1" type="truck_truck" depart="3.44" departLane="best">
        <route edges="1027257243 722356362#0-AddedOnRampEdge 722356362#0 722356362#1 722356362#2-AddedOnRampEdge 722356362#2 722356362#3 1024989366 1024989366-AddedOffRampEdge 1024989365 722356357 1024989362#0-AddedOnRampEdge 1024989362#0 1042329236#0 1042329236#1 1042329236#2 1042329236#3 1170476909#0 1170476909#2 229021945#0 229021945#2 229021945#6 158410303#1 158410303#2 158410303#3 158410303#4 158410303#5 158410303#6 158410303#7 -384025216 28124536#2 28124551#0 -670331704#0"/>
    </vehicle>
    <vehicle id="truck2" type="truck_truck" depart="6.87" departLane="best" departSpeed="max">
        <route edges="28489881#0 28489881#2 -1091867612#1 37985780#7 37985780#9 37985780#10 37985780#11 37985780#12 37985780#14 37985780#16 28117272#5 1042329238 1042329237 28252103#0 28252103#1 28252103#2"/>
    </vehicle>
    <vehicle id="truck3" type="truck_truck" depart="10.31" departLane="best" departSpeed="max">
        <route edges="410344191 410348019#0 198713273 410348020 410348020-AddedOffRampEdge 28171711 410348029#4 410348031 722356360#0 722356360#3 722356360#3-AddedOffRampEdge 28118565 1024989362#0-AddedOnRampEdge 1024989362#0 1042329236#0 1042329236#1 1042329236#2 1042329236#3 407256937#0 196800032#0 196800032#1 406636346#18 28124533"/>
    </vehicle>
    <vehicle id="truck4" type="truck_truck" depart="13.74" departLane="best" departSpeed="max">
        <route edges="-670331704#1 28124551#1 403283473#3 403283473#4 403283473#5 406636346#8 406636346#10 28123909#0 28123909#1 407256937#7 407256937#8 28123894#2"/>
    </vehicle>
    <vehicle id="truck5" type="truck_truck" depart="17.18" departLane="best">
        <route edges="28250334#1 -176674737#0 28177411#3 28177411#4 28177411#5 28177411#6-AddedOnRampEdge 28177411#6 176676453 176676447#0 410359597 80446446 410359599 28172403#1 28118323#8 28112650#0 1042329234#0 1042329234#2 1042329234#3 1042329234#4 1042329234#7 407256937#0 407256937#2 196800057#0 196800057#1 406636346#13 28124534#0 28124534#1"/>
    </vehicle>
    <vehicle id="truck6" type="truck_truck" depart="20.61" departLane="best" departSpeed="max">
        <route edges="-670331704#1 28124551#1 403283473#3 403283473#4 403283473#5 406636346#8 406636346#10 406636346#12 406636346#13 406636346#14 406636346#16 406636346#18 406636346#19 406636346#20 1042329238 1042329237 301866514#2 301866514#4 1027257253#0 1027257253#0-AddedOffRampEdge 1027257253#3 1021305072#0 1021305072#1-AddedOnRampEdge 1021305072#1 220518884#0 410348028#0-AddedOnRampEdge 410348028#0 410348028#0-AddedOffRampEdge 28171709#0"/>
    </vehicle>
    <vehicle id="truck7" type="truck_truck" depart="24.05" departLane="best">
        <route edges="389744125 407031094#11 407031094#14 1042329236#0 1042329236#1 1042329236#2 1042329236#3 1170476909#0 301866515#1 301866515#4 301866515#5 301866515#8 301866515#11 1035941619#0 -1035941618"/>
    </vehicle>
    <vehicle id="truck8" type="truck_truck" depart="27.48" departLane="best">
        <route edges="-132951304#1 -132951304#0 28176235#12 28172403#1 28118323#8 1173835648#0 -28252103#3 -28252103#2 -28252103#1"/>
    </vehicle>
    <vehicle id="truck10" type="truck_truck" depart="34.36" departLane="best">
        <route edges="406636346#1 406636346#2 406636346#3 406636346#5 406636346#6 406636346#7 406636346#8 406636346#10 406636346#12 406636346#13 406636346#14 406636346#16 406636346#18 406636346#19 406636346#20 1042329238 1042329237 301866514#2 301866514#4 28176235#0 28176235#3 -28176238#2 -28176238#1"/>
    </vehicle>
    <vehicle id="truck11" type="truck_truck" depart="37.79" departLane="best">
        <route edges="37985780#9 37985780#10 37985780#11 37985780#12 301866501 301866515#5 301866515#8 301866515#11 301866515#13 301866515#14 28172407#0 176953368#0 176953368#1 176953368#4 301866114"/>
    </vehicle>
    <vehicle id="truck12" type="truck_truck" depart="41.23" departLane="best">
        <route edges="28124527#0 28124548#1 28124548#2 28124548#3 28124548#4 28117272#1 28117272#2 28117272#3 28117272#4 28117272#5 1042329238 407256937#0 407256937#2 407256937#5 407256937#7 407256937#8 407256937#11 407256937#13 407256937#15 407256937#16 709003829"/>
    </vehicle>
    <vehicle id="truck13" type="truck_truck" depart="44.66" departLane="best" departSpeed="max">
        <route edges="403459191 301866711#4 301866711#6 410348019#0 410348019#1 410348019#2 28177411#0 28177411#1 28177411#2 28177411#3 28177411#4 28177411#5 28177411#6-AddedOnRampEdge"/>
    </vehicle>
    <vehicle id="truck14" type="truck_truck" depart="48.10" departLane="best">
        <route edges="28252118#1 37985780#0 410359605 28172407#0 176953368#0 176953368#1 176953368#4 301866114 28172400 301866391#2 301866391#3 413954727 410348021#0 410348021#0-AddedOffRampEdge 410348030 410348031 722356360#0 37974048#0 -132951313#4"/>
    </vehicle>
    <vehicle id="truck16" type="truck_truck" depart="54.97" departLane="best">
        <route edges="410348026#3 410348026#4 1027257250 1027257248 1027257246 220518886#0 220518886#1 220518886#3 867859355"/>
    </vehicle>
    <vehicle id="truck17" type="truck_truck" depart="58.40" departLane="best">
        <route edges="-28124549#4 -28124549#3 -28124549#1 28124527#0 28124548#1 28124548#2 28124548#3 28124548#4 28117272#1 28117272#2 28117272#3 28117272#4 28117272#5 301866515#1 301866515#4 301866515#5 301866515#8 301866515#11 301866515#13 301866515#14 28172407#0 176953368#0 176953368#1 28118323#8 28112650#0 1042329234#0"/>
    </vehicle>
    <vehicle id="truck18" type="truck_truck" depart="61.84" departLane="best" departSpeed="max">
        <route edges="28250330#0 28250330#1 28177411#6-AddedOnRampEdge 28177411#6 176676453 176676447#0 410359597 80446446 410359599 28172403#1 28118323#8 28112650#0 1042329234#0 1042329234#2 1042329234#3 1042329234#4 1042329234#7 1170476909#0 1170476909#2 229021945#0 229021945#2 229021945#6 158410303#1 158410303#2 158410303#3 158410303#4 158410303#5 158410303#6 158410303#7 403283473#4 158410296#0"/>
    </vehicle>
    <vehicle id="truck19" type="truck_truck" depart="65.28" departLane="best">
        <route edges="1021305072#1 220518884#0 410348028#0-AddedOnRampEdge 410348028#0 410348028#0-AddedOffRampEdge 410348028#3 410348709#0 410348709#1 410348709#1-AddedOffRampEdge 1043471254 1043471253 1043471253-AddedOffRampEdge 410348027 80446446 410359599 28172403#1 28118323#8 1173835648#0 410359601#2 410359601#3 410359601#6 410359601#7 410359601#8 410359601#13 410359601#17 410359601#19 410359601#22 410359601#24 410359601#27 410359601#30 28118325#3 28118325#4 709003823"/>
    </vehicle>
    <vehicle id="truck20" type="truck_truck" depart="68.71" departLane="best">
        <route edges="176676453 176676447#0 410359597 301866391#1 301866391#2 301866391#3 413954727 410348021#0 410348021#0-AddedOffRampEdge 410348029#0 410348029#1 -28176243#1 -28176243#0"/>
    </vehicle>
    <vehicle id="truck21" type="truck_truck" depart="72.15" departLane="best" departSpeed="max">
        <route edges="28252118#1 37985780#0 410359605 28172407#0 176953368#0 176953368#1 176953368#4 301866113"/>
    </vehicle>
    <vehicle id="truck22" type="truck_truck" depart="75.58" departLane="best">
        <route edges="-28252103#2 391085865 410359601#3 410359601#6 410359601#7 410359601#8 301866514#4 1027257253#0 1027257253#0-AddedOffRampEdge 28118568#0 410348026#1 410348026#3 410348026#4 1027257250 1027257248 1027257246 158414301"/>
    </vehicle>
    <vehicle id="truck23" type="truck_truck" depart="79.02" departLane="best">
        <route edges="80445170 407031094#8 407031094#10 407031094#11 407031094#14 1027257253#0 1027257253#0-AddedOffRampEdge 1027257253#3 1021305072#0 1021305072#1-AddedOnRampEdge 1021305072#1 220518884#0 410348028#0-AddedOnRampEdge 410348028#0 410348028#0-AddedOffRampEdge 28171709#0 413954730 413954731#0 410348019#0 410348019#1 -28250347#4 -28250347#3 -28250347#2 -28250347#1 -28250347#0 28250332#3 28250332#4 301866711#1 28250340#0"/>
    </vehicle>
    <vehicle id="truck25" type="truck_truck" depart="85.89" departLane="best" departSpeed="max">
        <route edges="406636346#0 406636346#1 406636346#2 406636346#3 406636346#5 406636346#6 406636346#7 406636346#8 406636346#10 406636346#12 406636346#13 406636346#14 406636346#16 406636346#18 406636346#19 406636346#20 1042329238 1042329237 301866514#2 301866514#4 1027257253#0 1027257253#0-AddedOffRampEdge 28118568#0 410348026#1 80677008 360771864"/>
    </vehicle>
    <vehicle id="truck27" type="truck_truck" depart="92.76" departLane="best">
        <route edges="-410359603#0 176953368#0 176953368#1 28118323#8 1173835648#0 410359601#2 410359601#3 410359601#6 410359601#7 410359601#8 410359601#13 410359601#17 410359601#19 410359601#22 410359601#24 28123894#8 28123894#9 28116049#11 28116049#12 28116049#13 28116049#14 28116049#15 709003824"/>
    </vehicle>
    <vehicle id="truck28" type="truck_truck" depart="96.20" departLane="best">
        <route edges="407031094#7 407031094#8 407031094#10 407031094#11 407031094#14 28176235#0 28176235#3 -28176238#2 132951310#0 132951310#1 37974048#3 1191712781"/>
    </vehicle>
    <vehicle id="truck29" type="truck_truck" depart="99.63" departLane="best">
        <route edges="410359599 28172403#1 28118323#8 1173835648#0 410359601#2 410359601#3 410359601#6 410359601#7 410359601#8 410359601#13 410359601#17 410359601#19 410359601#22 410359601#24 410359601#27 410359601#30 28118325#3 28118325#4 28118325#5 28116049#17 28116049#18"/>
    </vehicle>
    <vehicle id="truck31" type="truck_truck" depart="106.50" departLane="best">
        <route edges="28124546#1 28124546#2 28124546#3 28117272#4 28117272#5 301866515#1 301866515#4 301866515#5 301866515#8 301866515#11 301866515#13 301866515#14 28176232 37985780#2 37985780#7 1035941617#0 1035941616"/>
    </vehicle>
    <vehicle id="truck32" type="truck_truck" depart="109.94" departLane="best">
        <route edges="28124552#0 670331704#0 28124551#1 403283473#3 403283473#4 403283473#5 406636346#8 406636346#10 406636346#12 406636346#13 406636346#14 406636346#16 406636346#18 406636346#19 406636346#20 301866515#1 301866515#4 301866515#5 301866515#8 301866515#11 301866515#13 301866515#14 28172407#0 410359603#0 410359603#1"/>
    </vehicle>
    <vehicle id="truck34" type="truck_truck" depart="116.81" departLane="best">
        <route edges="-28124533 406636346#19 406636346#20 1042329238 407256937#0 407256937#2 407256937#5 407256937#7 407256937#8 407256937#11 28123893#5 -28123901#0 -153457591#0"/>
    </vehicle>
    <vehicle id="truck35" type="truck_truck" depart="120.25" departLane="best" departSpeed="max">
        <route edges="28124550#1 28124538#0 406636346#3 406636346#5 406636346#6 406636346#7 406636346#8 406636346#10 406636346#12 406636346#13 406636346#14 406636346#16 406636346#18 406636346#19 406636346#20 301866515#1 301866515#4 301866515#5 301866515#8 301866515#11 301866515#13 301866515#14 28172407#0 176953368#0 176953368#1 176953368#4 301866114 410359600 229024629 410359596 28250334#0 28250334#1"/>
    </vehicle>
    <vehicle id="truck37" type="truck_truck" depart="127.12" departLane="best">
        <route edges="-158408625#0 28124547 158408272#0 28253273#1 28253273#2 37985780#12 37985780#14 37985780#16 28117272#5 1042329238 1042329237 301866514#2 301866514#4 1027257253#0 1027257253#0-AddedOffRampEdge 28118568#0 410348026#1 410348026#3 410348026#4 1027257250 1027257248 1027257246 158414301"/>
    </vehicle>
    <vehicle id="truck38" type="truck_truck" depart="130.55" departLane="best" departSpeed="max">
        <route edges="867859360 28123897#0 28125055 1043108985#2 1027257244 1027257245 28118326#0 407031094#7 407031094#8 407031094#10 407031094#11 407031094#14 1042329236#0 1042329236#1 1042329236#2 1042329236#3 1170476909#0 1170476909#2 229021945#0 229021945#2 229021945#6 158410303#1 28123906#1 28123906#2"/>
    </vehicle>
    <vehicle id="truck39" type="truck_truck" depart="133.99" departLane="best">
        <route edges="722356360#5 1021305072#0 1021305072#1-AddedOnRampEdge 1021305072#1 220518884#0 410348028#0-AddedOnRampEdge 410348028#0 410348028#0-AddedOffRampEdge 28171709#0 413954730 413954731#0 410348019#0 410348019#1 410348019#2 410348019#3"/>
    </vehicle>
    <vehicle id="truck40" type="truck_truck" depart="137.42" departLane="best">
        <route edges="28250350#1 28177411#2 28177411#3 28177411#4 28177411#5 28177411#6-AddedOnRampEdge 28177411#6 176676453 176676447#0 410359597 80446446 410359599 28172403#1 28118323#8 28112650#0 1042329234#0 1042329234#2 1042329234#3 1042329234#4 1042329234#7 1170476909#0 1170476909#2 229021945#0 229021945#2 229021945#6 158410303#1 158410303#2 158410303#3 28124527#3"/>
    </vehicle>
    <vehicle id="truck41" type="truck_truck" depart="140.86" departLane="best">
        <route edges="1021305072#1 220518884#0 410348028#0-AddedOnRampEdge 410348028#0 410348028#0-AddedOffRampEdge 28171709#0 413954730 413954731#0 410348019#0 410348019#1 -28250347#4 -28250347#3 -28250347#2 -28250347#1 -28250347#0 28250332#3 28250332#4 301866711#1 28250340#0"/>
    </vehicle>
    <vehicle id="truck42" type="truck_truck" depart="144.29" departLane="best" departSpeed="max">
        <route edges="28124550#1 28124538#0 406636346#3 406636346#5 406636346#6 406636346#7 406636346#8 406636346#10 406636346#12 406636346#13 406636346#14 28117275#0 28117275#1 362658256#0 362658256#1 229021945#0 229021945#2 229021945#6 229021945#8"/>
    </vehicle>
    <vehicle id="truck43" type="truck_truck" depart="147.73" departLane="best">
        <route edges="28117272#3 28117272#4 28117272#5 1042329238 1042329237 301866514#2 410359601#13 410359601#17 410359601#19 410359601#22 410359601#24 28123894#8 28123894#9 28116049#11 28116049#12 28116049#13 709003826"/>
    </vehicle>
    <vehicle id="truck44" type="truck_truck" depart="151.17" departLane="best">
        <route edges="407031094#7 407031094#8 407031094#10 407031094#11 407031094#14 1042329236#0 1042329236#1 1042329236#2 1042329236#3 1170476909#0 301866515#1 301866515#4 301866515#5 301866515#8 301866515#11 301866515#13 301866515#14 28176232 37985780#2 37985780#7 1035941617#0 1035941616"/>
    </vehicle>
    <vehicle id="truck46" type="truck_truck" depart="158.04" departLane="best">
        <route edges="301866514#4 1027257253#0 1027257253#0-AddedOffRampEdge 1027257253#3 1021305072#0 1021305072#1-AddedOnRampEdge 1021305072#1 220518884#0 410348028#0-AddedOnRampEdge 410348028#0 410348028#0-AddedOffRampEdge 28171709#0 413954730 413954731#0 410348019#0 410348019#1 -28250347#4 -28250347#3 -28250347#2 -28250347#1 -28250347#0 28250332#3 28250332#4 301866711#1 28250340#0"/>
    </vehicle>
    <vehicle id="truck48" type="truck_truck" depart="164.91" departLane="best">
        <route edges="301866711#4 301866711#6 410348019#0 198713273 410348020 410348020-AddedOffRampEdge 28171711 410348029#4 410348031 722356360#0 722356360#3 722356360#3-AddedOffRampEdge 28118565 1024989362#0-AddedOnRampEdge 1024989362#0 1042329236#0 1042329236#1 1042329236#2 1042329236#3 1170476909#0 1170476909#2 229021945#0 -28124546#4 28123906#3 28123906#4"/>
    </vehicle>
    <vehicle id="truck49" type="truck_truck" depart="168.34" departLane="best" departSpeed="max">
        <route edges="-1035941616 -1035941617#0 37985780#9 37985780#10 37985780#11 37985780#12 37985780#14 37985780#16 28117272#5 1042329238 1042329237 301866514#2 410359601#13 410359601#17 410359601#19 410359601#22 410359601#24 28123894#8 28123894#9 28116049#11 28116049#12 391051537 125076885#0"/>
    </vehicle>
    <vehicle id="truck50" type="truck_truck" depart="171.78" departLane="best">
        <route edges="407256937#0 407256937#2 407256937#5 407256937#7 407256937#8 407256937#11 407256937#13 407256937#15 153457591#0 153457591#1 406636346#1 406636346#2 406636346#3"/>
    </vehicle>
    <vehicle id="truck51" type="truck_truck" depart="175.21" departLane="best" departSpeed="max">
        <route edges="1043108985#0 1043108985#2 1027257244 1027257245 28118326#0 407031094#7 407031094#8 407031094#10 407031094#11 407031094#14 1042329236#0 1042329236#1 1042329236#2 1042329236#3 1170476909#0 1170476909#2 229021945#0 229021945#2 -158408272#3 -158408272#2"/>
    </vehicle>
    <vehicle id="truck52" type="truck_truck" depart="178.65" departLane="best">
        <route edges="407256937#0 407256937#2 407256937#5 407256937#7 407256937#8 28123894#2 28123894#6 28123894#8 28123894#9 28116049#11 28116049#12 28116049#13 28116049#14 28116049#15 709003824"/>
    </vehicle>
    <vehicle id="truck54" type="truck_truck" depart="185.52" departLane="best">
        <route edges="301866515#8 301866515#11 301866515#13 301866515#14 28172407#0 176953368#0 176953368#1 176953368#4 301866114 28172400 301866391#2 301866391#3 413954727 -28176242#1 -28176242#0"/>
    </vehicle>
    <vehicle id="truck57" type="truck_truck" depart="195.83" departLane="best" departSpeed="max">
        <route edges="28036986 28036986-AddedOffRampEdge 28118554 722356362#2-AddedOnRampEdge 722356362#2 722356362#3 1024989366 1024989366-AddedOffRampEdge 1024989365 1021305072#0 1021305072#1-AddedOnRampEdge 1021305072#1 220518884#0 410348028#0-AddedOnRampEdge 410348028#0 410348028#0-AddedOffRampEdge 28171709#0 413954730 413954731#0 -410344191"/>
    </vehicle>
    <vehicle id="truck58" type="truck_truck" depart="199.26" departLane="best">
        <route edges="28124527#4 28124527#6 28117275#1 -28124533 406636346#19 406636346#20 301866515#1 301866515#4 301866515#5 301866515#8 301866515#11 301866515#13 301866515#14 28172407#0 176953368#0 176953368#1 176953368#4 301866114"/>
    </vehicle>
    <vehicle id="truck59" type="truck_truck" depart="202.70" departLane="best" departSpeed="max">
        <route edges="867859360 28123897#0 28125055 1043108985#2 1027257244 1027257243 722356362#0-AddedOnRampEdge 722356362#0 722356362#1 722356362#2-AddedOnRampEdge 722356362#2 722356362#3 1024989366 1024989366-AddedOffRampEdge 1024989365 1021305072#0 1021305072#1-AddedOnRampEdge 1021305072#1 220518884#0 410348028#0-AddedOnRampEdge 410348028#0 410348028#0-AddedOffRampEdge 28171709#0 413954730 413954731#0 410348019#0 410348019#1 -28250347#4 -28250344#1"/>
    </vehicle>
    <vehicle id="truck60" type="truck_truck" depart="206.13" departLane="best">
        <route edges="28125045#0 1024989366 1024989366-AddedOffRampEdge 1024989365 1021305072#0 1021305072#1-AddedOnRampEdge 1021305072#1 220518884#0 410348028#0-AddedOnRampEdge 410348028#0 410348028#0-AddedOffRampEdge 28171709#0 413954730 413954731#0 410348019#0 410348019#1 410348019#2 28177411#0 -745499160"/>
    </vehicle>
    <vehicle id="truck61" type="truck_truck" depart="209.57" departLane="best">
        <route edges="132951298 1042329236#2 301866514#2 301866514#4 1027257253#0 1027257253#0-AddedOffRampEdge 1027257253#3 1021305072#0 1021305072#1-AddedOnRampEdge 1021305072#1 220518884#0 410348028#0-AddedOnRampEdge 410348028#0 410348028#0-AddedOffRampEdge 410348028#3 410348709#0"/>
    </vehicle>
    <vehicle id="truck63" type="truck_truck" depart="216.44" departLane="best" departSpeed="max">
        <route edges="-174468339 28124548#3 28124548#4 28117272#1 28117272#2 28117272#3 28117272#4 28117272#5 301866515#1 301866515#4 301866515#5 301866515#8 301866515#11 301866515#13 301866515#14 28172407#0 176953368#0 176953368#1 176953368#4 301866114 410359600 229024629 410359596 28250334#0 -28250335#1"/>
    </vehicle>
    <vehicle id="truck65" type="truck_truck" depart="223.31" departLane="best">
        <route edges="406636346#5 406636346#6 406636346#7 406636346#8 406636346#10 406636346#12 406636346#13 28124534#0 28124534#1 28124534#3 28124534#4 28124534#6 -28124549#1 -28124549#0 -230074430"/>
    </vehicle>
    <vehicle id="truck67" type="truck_truck" depart="230.18" departLane="best" departSpeed="max">
        <route edges="-43007533 1042329234#4 1042329234#7 1042329237 301866514#2 301866514#4 28176235#0 28176235#3 -28176238#2 -28176238#1 -28176238#0 410348029#1 -28176243#1"/>
    </vehicle>
    <vehicle id="truck68" type="truck_truck" depart="233.62" departLane="best" departSpeed="max">
        <route edges="444938294 28252118#1 37985780#0 37985780#2 37985780#7 37985780#9 37985780#10 37985780#11 37985780#12 37985780#14 37985780#16 229021945#0 229021945#2 229021945#6 158410303#1 158410303#2 158410303#3 158410303#4 158410303#5 158410303#6 28124530 28124549#5"/>
    </vehicle>
    <vehicle id="truck69" type="truck_truck" depart="237.06" departLane="best">
        <route edges="28118325#1 28118325#3 407031094#1 407031094#2 407031094#4 407031094#7 407031094#8 407031094#10 407031094#11 407031094#14 1042329236#0 1042329236#1 1042329236#2 1042329236#3 1170476909#0 1170476909#2 229021945#0 229021945#2 229021945#6 158410303#1 158410303#2 362658257#3 362658257#4"/>
    </vehicle>
    <vehicle id="truck70" type="truck_truck" depart="240.49" departLane="best" departSpeed="max">
        <route edges="28036986 28036986-AddedOffRampEdge 28118554 722356362#2-AddedOnRampEdge 722356362#2 722356362#3 1024989366 1024989366-AddedOffRampEdge 1024989365 722356357 1024989362#0-AddedOnRampEdge 1024989362#0 1042329236#0 1042329236#1 1042329236#2 1042329236#3 1170476909#0 1170476909#2 229021945#0 229021945#2"/>
    </vehicle>
    <vehicle id="truck71" type="truck_truck" depart="243.93" departLane="best" departSpeed="max">
        <route edges="28254238#0 28489881#2 -1091867612#1 37985780#7 37985780#9 37985780#10 37985780#11 37985780#12 37985780#14 37985780#16 28117272#5 1042329238 1042329237 28252103#0 -28252102"/>
    </vehicle>
    <vehicle id="truck72" type="truck_truck" depart="247.36" departLane="best" departSpeed="max">
        <route edges="745499160 28177411#1 28177411#2 28177411#3 28177411#4 28177411#5 28177411#6-AddedOnRampEdge 28177411#6 176676453 176676447#0 410359597 80446446 410359599 28172403#1 28172403#2 28172408#0 28172408#1 28176232 37985780#2 37985780#7 37985780#9 37985780#10 37985780#11 37985780#12 28253276#0 28253276#1 -158408272#1 -158408272#0 -28124547"/>
    </vehicle>
    <vehicle id="truck73" type="truck_truck" depart="250.80" departLane="best">
        <route edges="228038463 410348026#4 1027257250 1027257248 1027257246 1027257245 28118326#0 407031094#7 407031094#8 407031094#10 407031094#11 407031094#14 28176235#0 28176235#3 28176235#9 28176235#11 132951304#0 132951304#1"/>
    </vehicle>
    <vehicle id="truck74" type="truck_truck" depart="254.23" departLane="best">
        <route edges="406636346#7 406636346#8 406636346#10 406636346#12 406636346#13 406636346#14 406636346#16 406636346#18 406636346#19 406636346#20 1042329238 1042329237 301866514#2 301866514#4 1027257253#0 1027257253#0-AddedOffRampEdge 28118568#0 410348026#1 410348026#3 410348026#4 1027257250 1027257248 1027257246 1027257243"/>
    </vehicle>
    <vehicle id="truck75" type="truck_truck" depart="257.67" departLane="best" departSpeed="max">
        <route edges="-293075487 301866515#5 301866515#8 301866515#11 301866515#13 -28252104#4 1042329234#3 1042329234#4 1042329234#7 1042329237 301866514#2 410359601#13 410359601#17 410359601#19 410359601#22 410359601#24 28123894#8 28123894#9 28116049#11 28116049#12"/>
    </vehicle>
    <vehicle id="truck76" type="truck_truck" depart="261.10" departLane="best" departSpeed="max">
        <route edges="28036986 28036986-AddedOffRampEdge 28118554 722356362#2-AddedOnRampEdge 722356362#2 722356362#3 1024989366 1024989366-AddedOffRampEdge 1024989365 722356357 1024989362#0-AddedOnRampEdge 1024989362#0 1042329236#0 1042329236#1 1042329236#2 1042329236#3 1170476909#0 301866515#1 301866515#4 301866515#5 301866515#8 301866515#11 301866515#13 301866515#14 28172407#0 176953368#0 176953368#1 28118323#8 28112650#0 1042329234#0"/>
    </vehicle>
    <vehicle id="truck77" type="truck_truck" depart="264.54" departLane="best">
        <route edges="28116049#2 28116049#3 1321841498 407031094#10 407031094#11 407031094#14 1027257253#0 1027257253#0-AddedOffRampEdge 1027257253#3 1021305072#0 1021305072#1-AddedOnRampEdge 1021305072#1 220518884#0 410348028#0-AddedOnRampEdge 410348028#0 410348028#0-AddedOffRampEdge 28171709#0 413954730 413954731#0 410348019#0 410348019#1 410348019#2 410348019#3"/>
    </vehicle>
    <vehicle id="truck78" type="truck_truck" depart="267.98" departLane="best" departSpeed="max">
        <route edges="28124535 403283473#0 403283473#1 403283473#3 403283473#4 403283473#5 406636346#8 406636346#10 406636346#12 406636346#13 406636346#14 406636346#16 406636346#18 406636346#19 406636346#20 1042329238 1042329237 301866514#2 301866514#4 1027257253#0 1027257253#0-AddedOffRampEdge 28118568#0 410348026#1 410348026#3 410348026#4 1027257250 1027257248 368474836 722356362#0-AddedOnRampEdge 722356362#0 80677003 -157863240#1"/>
    </vehicle>
    <vehicle id="truck79" type="truck_truck" depart="271.41" departLane="best" departSpeed="max">
        <route edges="867859360 28123897#0 28125055 1043108985#2 1027257244 1027257245 28118326#0 28118326#5 28118326#6 28118326#8 407256937#8 407256937#11 28123893#5 28123893#6 406636346#5 406636346#6 406636346#7 406636346#8"/>
    </vehicle>
    <vehicle id="truck80" type="truck_truck" depart="274.85" departLane="best">
        <route edges="722356360#3-AddedOffRampEdge 28118565 1024989362#0-AddedOnRampEdge 1024989362#0 1042329236#0 1042329236#1 1042329236#2 1042329236#3 1170476909#0 301866515#1 301866515#4 301866515#5 301866515#8 301866515#11 301866515#13 301866515#14 28176232 679796177"/>
    </vehicle>
    <vehicle id="truck81" type="truck_truck" depart="278.28" departLane="best">
        <route edges="406636346#10 406636346#12 406636346#13 406636346#14 406636346#16 406636346#18 406636346#19 406636346#20 301866515#1 301866515#4 301866515#5 301866515#8 301866515#11 301866515#13 301866515#14 28172407#0 176953368#0 -28252111#1 -28252112#0"/>
    </vehicle>
    <vehicle id="truck82" type="truck_truck" depart="281.72" departLane="best" departSpeed="max">
        <route edges="28118328 1027257243 722356362#0-AddedOnRampEdge 722356362#0 722356362#1 722356362#2-AddedOnRampEdge 722356362#2 722356362#3 1024989366 1024989366-AddedOffRampEdge 1024989365 1021305072#0 1021305072#1-AddedOnRampEdge 1021305072#1 220518884#0 410348028#0-AddedOnRampEdge 410348028#0 410348028#0-AddedOffRampEdge 28171709#0 413954730 413954731#0 -410344191"/>
    </vehicle>
    <vehicle id="truck84" type="truck_truck" depart="288.59" departLane="best">
        <route edges="176674737#0 176674737#1 176674737#2 410348709#1 410348709#1-AddedOffRampEdge 1043471254 1043471253 1043471253-AddedOffRampEdge 410348027 301866391#1 301866391#2 301866391#3 413954727 410348021#0 410348021#0-AddedOffRampEdge 410348030 410348031 722356360#0 722356360#3 722356360#3-AddedOffRampEdge"/>
    </vehicle>
    <vehicle id="truck86" type="truck_truck" depart="295.46" departLane="best">
        <route edges="28117272#4 28117272#5 1042329238 1042329237 301866514#2 410359601#13 410359601#17 410359601#19 410359601#22 410359601#24 28123894#8 28123894#9 28123894#12 220518886#1 220518886#3 220518886#5"/>
    </vehicle>
    <vehicle id="truck88" type="truck_truck" depart="302.33" departLane="best">
        <route edges="406636346#5 406636346#6 406636346#7 406636346#8 406636346#10 406636346#12 406636346#13 406636346#14 406636346#16 406636346#18 406636346#19 406636346#20 301866515#1 301866515#4 293075487"/>
    </vehicle>
    <vehicle id="truck89" type="truck_truck" depart="305.77" departLane="best" departSpeed="max">
        <route edges="-28250349 28250347#2 28250350#0 28250350#1 28177411#2 28177411#3 28177411#4 28177411#5 28177411#6-AddedOnRampEdge 28177411#6 176676453 176676447#0 410359597 80446446 410359599 28172403#1 28118323#8 28112650#0 1042329234#0 1042329234#2 1042329234#3 1042329234#4 1042329234#7 1170476909#0"/>
    </vehicle>