<?xml version="1.0" encoding="UTF-8"?>

<!-- generated on 2025-04-20 00:15:49.337212 by randomTrips.py v1_22_0+0002-63e50f52594
<configuration>
    <net-file value="osm.net.xml.gz"/>
    <output-trip-file value="osm.passenger.trips.xml"/>
    <route-file value="osm.passenger.rou.xml"/>
    <prefix value="veh"/>
    <trip-attributes value="departLane=&quot;best&quot;"/>
    <fringe-start-attributes value="departSpeed=&quot;max&quot;"/>
    <vehicle-class value="passenger"/>
    <lanes value="True"/>
    <fringe-factor value="5"/>
    <allow-fringe.min-length value="1000.0"/>
    <via-edge-types value="highway.motorway,highway.motorway_link,highway.trunk_link,highway.primary_link,highway.secondary_link,highway.tertiary_link"/>
    <min-distance value="300.0"/>
    <min-distance.fringe value="10.0"/>
    <remove-loops value="True"/>
    <validate value="True"/>
    <insertion-density value="25.0"/>
</configuration>
-->

<!-- generated on 2025-04-20 00:15:48 by Eclipse SUMO duarouter Version 1.22.0
<duarouterConfiguration xmlns:xsi="http://www.w3.org/2001/XMLSchema-instance" xsi:noNamespaceSchemaLocation="http://sumo.dlr.de/xsd/duarouterConfiguration.xsd">

    <input>
        <net-file value="osm.net.xml.gz"/>
        <route-files value="osm.passenger.trips.xml"/>
    </input>

    <output>
        <output-file value="osm.passenger.rou.xml"/>
        <alternatives-output value="NUL"/>
    </output>

    <processing>
        <remove-loops value="true"/>
    </processing>

    <time>
        <begin value="0.0"/>
        <end value="3600.0"/>
    </time>

    <report>
        <no-warnings value="true"/>
        <ignore-errors value="true"/>
        <no-step-log value="true"/>
    </report>

</duarouterConfiguration>
-->

<routes xmlns:xsi="http://www.w3.org/2001/XMLSchema-instance" xsi:noNamespaceSchemaLocation="http://sumo.dlr.de/xsd/routes_file.xsd">
    <vType id="veh_passenger" vClass="passenger"/>
    <vehicle id="veh0" type="veh_passenger" depart="0.00" departLane="best">
        <route edges="132951280#3 28118325#1 28118325#3 407031094#1 407031094#2 407031094#4 407031094#7 407031094#8 407031094#10 407031094#11 407031094#14 1042329236#0 1042329236#1 1042329236#2 1042329236#3 1170476909#0 301866515#1 301866515#4 301866515#5 301866515#8 301866515#11 301866515#13 301866515#14 28172407#0 176953368#0 176953368#1 28118323#8 28112650#0 1042329234#0"/>
    </vehicle>
    <vehicle id="veh2" type="veh_passenger" depart="2.47" departLane="best">
        <route edges="410359597 301866391#1 301866391#2 301866391#3 413954727 410348021#0 410348021#0-AddedOffRampEdge 410348029#0 410348029#1 -28176243#1"/>
    </vehicle>
    <vehicle id="veh3" type="veh_passenger" depart="3.71" departLane="best">
        <route edges="28118323#8 1173835648#0 410359601#2 410359601#3 410359601#6 410359601#7 410359601#8 301866514#4 28176235#0 28176235#3 -28176238#2 -28176238#1 132951313#2"/>
    </vehicle>
    <vehicle id="veh4" type="veh_passenger" depart="4.95" departLane="best" departSpeed="max">
        <route edges="1035941618 -1035941619#0 301866515#13 -28252104#4 1042329234#3 1042329234#4 1042329234#7 1170476909#0 1170476909#2 229021945#0 229021945#2 229021945#6 158410303#1 158410303#2 158410303#3 158410303#4 28124534#4"/>
    </vehicle>
    <vehicle id="veh5" type="veh_passenger" depart="6.18" departLane="best">
        <route edges="-1285895521 28123894#6 28123894#8 407031094#4 407031094#7 407031094#8 407031094#10 407031094#11 407031094#14 1027257253#0 1027257253#0-AddedOffRampEdge 28118568#0 410348026#1 410348026#3 410348026#4 1027257250 1027257248"/>
    </vehicle>
    <vehicle id="veh6" type="veh_passenger" depart="7.42" departLane="best">
        <route edges="28253273#1 28253273#2 37985780#12 37985780#14 37985780#16 28117272#5 1042329238 1042329237 301866514#2 301866514#4 28176235#0"/>
    </vehicle>
    <vehicle id="veh7" type="veh_passenger" depart="8.66" departLane="best">
        <route edges="1042329234#0 1042329234#2 28252104#0 301866515#14 28172407#0 176953368#0 176953368#1 176953368#4 301866114 410359600 229024629 410359596 28250334#0 28250334#1 -176674737#0 28177411#3 28250332#0 28250332#1 28250332#2 28250332#3 28250332#4 301866711#1 28250340#0"/>
    </vehicle>
    <vehicle id="veh9" type="veh_passenger" depart="11.13" departLane="best">
        <route edges="406636346#20 301866515#1 301866515#4 301866515#5 301866515#8 301866515#11 301866515#13 301866515#14 301866515#20 301866515#24"/>
    </vehicle>
    <vehicle id="veh10" type="veh_passenger" depart="12.37" departLane="best">
        <route edges="28117272#4 28117272#5 1042329238 1042329237 301866514#2 301866514#4 1027257253#0 1027257253#0-AddedOffRampEdge 28118568#0 410348026#1 410348026#3 410348026#4 1027257250 1027257248 368474836 722356362#0-AddedOnRampEdge 722356362#0 80677003"/>
    </vehicle>
    <vehicle id="veh11" type="veh_passenger" depart="13.60" departLane="best">
        <route edges="722356357 1024989362#0-AddedOnRampEdge 1024989362#0 1027257253#0 1027257253#0-AddedOffRampEdge 28118568#0 410348026#1 410348026#3 410348026#4 1027257250 28118555 158592562-AddedOnRampEdge 158592562"/>
    </vehicle>
    <vehicle id="veh12" type="veh_passenger" depart="14.84" departLane="best">
        <route edges="407256937#5 407256937#7 28118326#10 28118326#11 406636346#10 406636346#12 406636346#13 406636346#14 406636346#16 406636346#18 406636346#19 406636346#20 1042329238 1042329237 301866514#2 301866514#4 1027257253#0 1027257253#0-AddedOffRampEdge 1027257253#3 1021305072#0 1021305072#1-AddedOnRampEdge 1021305072#1 220518884#0 410348028#0-AddedOnRampEdge 410348028#0 410348028#0-AddedOffRampEdge 28171709#0 413954730 413954731#0 410348019#0 410348019#1 410348019#2 28177411#0 28177411#1 -28250350#1 -28250350#0 28250347#3"/>
    </vehicle>
    <vehicle id="veh13" type="veh_passenger" depart="16.08" departLane="best">
        <route edges="406636346#3 406636346#5 406636346#6 406636346#7 406636346#8 406636346#10 406636346#12 406636346#13 406636346#14 28117275#0 28117275#1 362658256#0"/>
    </vehicle>
    <vehicle id="veh14" type="veh_passenger" depart="17.32" departLane="best" departSpeed="max">
        <route edges="28125035 28125045#0 1024989366 1024989366-AddedOffRampEdge 1024989365 1021305072#0 1021305072#1-AddedOnRampEdge 1021305072#1 220518884#0 410348028#0-AddedOnRampEdge 410348028#0 410348028#0-AddedOffRampEdge 28171709#0 413954730 413954731#0 410348019#0 198713273 410348020 410348020-AddedOffRampEdge 28171711 410348029#4 410348031 722356360#0 722356360#3 722356360#3-AddedOffRampEdge"/>
    </vehicle>
    <vehicle id="veh15" type="veh_passenger" depart="18.55" departLane="best" departSpeed="max">
        <route edges="280670457#0 280670457#1 301866391#1 301866391#2 301866391#3 413954727 410348021#0 410348021#0-AddedOffRampEdge 410348029#0 28176238#0"/>
    </vehicle>
    <vehicle id="veh16" type="veh_passenger" depart="19.79" departLane="best">
        <route edges="407031094#4 407031094#7 407031094#8 407031094#10 407031094#11 407031094#14 1042329236#0 1042329236#1 1042329236#2 1042329236#3 1170476909#0 301866515#1 301866515#4 301866515#5 301866515#8 301866515#11 301866515#13 301866515#14 28172407#0 410359603#0 28252112#2"/>
    </vehicle>
    <vehicle id="veh17" type="veh_passenger" depart="21.03" departLane="best">
        <route edges="410348019#0 410348019#1 410348019#2 28177411#0 28177411#1 28177411#2 28177411#3 28250332#0"/>
    </vehicle>
    <vehicle id="veh18" type="veh_passenger" depart="22.26" departLane="best">
        <route edges="301866515#8 301866515#11 301866515#13 -28252104#4 1042329234#3 1042329234#4 1042329234#7 407256937#0 407256937#2 196800057#0 196800057#1"/>
    </vehicle>
    <vehicle id="veh19" type="veh_passenger" depart="23.50" departLane="best">
        <route edges="1042329234#4 1042329234#7 1042329237 301866514#2 301866514#4 28176235#0 28176235#3 28176235#9 28176242#0 132951313#1"/>
    </vehicle>
    <vehicle id="veh20" type="veh_passenger" depart="24.74" departLane="best">
        <route edges="28125045#0 1024989366 1024989366-AddedOffRampEdge 1024989365 722356357 1024989362#0-AddedOnRampEdge 1024989362#0 1042329236#0 1042329236#1 1042329236#2 1042329236#3 1170476909#0"/>
    </vehicle>
    <vehicle id="veh21" type="veh_passenger" depart="25.97" departLane="best" departSpeed="max">
        <route edges="-28250349 28250347#2 28250347#3 -28250344#1 -28250344#0 301866711#6 410348019#0 198713273 410348020 410348020-AddedOffRampEdge 28171711 410348029#4 410348031 410348032 410348032-AddedOffRampEdge 158592556 1027257250 1027257248 1027257246 220518886#0 220518886#1 220518886#3 867859355 125076885#2"/>
    </vehicle>
    <vehicle id="veh22" type="veh_passenger" depart="27.21" departLane="best">
        <route edges="28252111#1 176953368#1 28118323#8 1173835648#0 410359601#2 410359601#3 410359601#6 410359601#7 410359601#8 301866514#4 1027257253#0 1027257253#0-AddedOffRampEdge 28118568#0 410348026#1 410348026#3 410348026#4 1027257250 1027257248 1027257246 220518886#0"/>
    </vehicle>
    <vehicle id="veh23" type="veh_passenger" depart="28.45" departLane="best" departSpeed="max">
        <route edges="280670457#0 28172398 410359599 28172403#1 28118323#8 1173835648#0 410359601#2 410359601#3 410359601#6 410359601#7 410359601#8 301866514#4 1027257253#0 1027257253#0-AddedOffRampEdge 1027257253#3"/>
    </vehicle>
    <vehicle id="veh24" type="veh_passenger" depart="29.68" departLane="best" departSpeed="max">
        <route edges="28253273#0 28253273#1 28253273#2 37985780#12 37985780#14 37985780#16 28117272#5 1042329238 1042329237 301866514#2 301866514#4 1027257253#0 1027257253#0-AddedOffRampEdge 1027257253#3 1021305072#0 1021305072#1-AddedOnRampEdge 1021305072#1 220518884#0 410348028#0-AddedOnRampEdge 410348028#0 410348028#0-AddedOffRampEdge 28171709#0 413954730 413954731#0 410348019#0 410348019#1 -28250347#4 -28250347#3 -28250347#2 28250349"/>
    </vehicle>
    <vehicle id="veh25" type="veh_passenger" depart="30.92" departLane="best" departSpeed="max">
        <route edges="-709003830 132951280#3 28118325#1 28118325#3 407031094#1 407031094#2 407031094#4 28118326#5 28118326#6 28118326#8 28118326#10 28118326#11 406636346#10 406636346#12 406636346#13 406636346#14 28117275#0 28117275#1 362658256#0"/>
    </vehicle>
    <vehicle id="veh26" type="veh_passenger" depart="32.16" departLane="best" departSpeed="max">
        <route edges="-709003827 407256937#15 153457591#0 28123901#0 28123901#1 28123894#1 28123894#2 28123894#6 28123894#8 28123894#9 28123894#12 220518886#1 220518886#3 220518886#5"/>
    </vehicle>
    <vehicle id="veh27" type="veh_passenger" depart="33.39" departLane="best" departSpeed="max">
        <route edges="745499160 28177411#1 28177411#2 28177411#3 28177411#4 28177411#5 28177411#6-AddedOnRampEdge 28177411#6 176676453 176676447#0 410359597 80446446 410359599 28172403#1 28172403#2 28172408#0 28172408#1 28176232 37985780#2 1091867612#0 28489881#3"/>
    </vehicle>
    <vehicle id="veh28" type="veh_passenger" depart="34.63" departLane="best" departSpeed="max">
        <route edges="28176231 28490019 410359605 28172407#0 176953368#0 176953368#1 176953368#4 301866114 28172400 301866391#2 301866391#3"/>
    </vehicle>
    <vehicle id="veh30" type="veh_passenger" depart="37.10" departLane="best">
        <route edges="1042329234#7 407256937#0 407256937#2 407256937#5 407256937#7 407256937#8 407256937#11 407256937#13 407256937#15 153457591#0 153457591#1"/>
    </vehicle>
    <vehicle id="veh31" type="veh_passenger" depart="38.34" departLane="best">
        <route edges="176676447#0 410359597 301866391#1 301866391#2 301866391#3 413954727 410348021#0 410348021#0-AddedOffRampEdge 410348030 410348031 722356360#0 37974048#0 37974048#1 37974048#3 1191712781"/>
    </vehicle>
    <vehicle id="veh32" type="veh_passenger" depart="39.58" departLane="best">
        <route edges="1027257253#0-AddedOffRampEdge 28118568#0 410348026#1 410348026#3 410348026#4 1027257250 1027257248 1027257246 1027257245 28116049#10 28116049#11 28116049#12 28116049#13 28116049#14 28116049#15 709003824"/>
    </vehicle>
    <vehicle id="veh33" type="veh_passenger" depart="40.81" departLane="best">
        <route edges="410348026#1 410348026#3 410348026#4 1027257250 1027257248 1027257246 1027257245 28118326#0 28118326#5 28118326#6 28118326#8 28118326#10 28118326#11 406636346#10 406636346#12 406636346#13 28124534#0 28124534#1 158410296#2 158410296#3"/>
    </vehicle>
    <vehicle id="veh34" type="veh_passenger" depart="42.05" departLane="best">
        <route edges="28253276#1 158408272#2 158408272#3 229021945#6 229021945#8"/>
    </vehicle>
    <vehicle id="veh35" type="veh_passenger" depart="43.29" departLane="best">
        <route edges="410359601#7 410359601#8 410359601#13 410359601#17 410359601#19 410359601#22 410359601#24 28123894#8 28123894#9 28116049#11 28123893#0"/>
    </vehicle>
    <vehicle id="veh36" type="veh_passenger" depart="44.53" departLane="best">
        <route edges="1173835648#0 -28252103#3 1193895422 1042329234#2 28252104#0 301866515#14 28172407#0 176953368#0 176953368#1 176953368#4 301866114 410359600 229024629 410359596 28250334#0 -28250335#1 -28250335#0 1043471253"/>
    </vehicle>
    <vehicle id="veh37" type="veh_passenger" depart="45.76" departLane="best" departSpeed="max">
        <route edges="28176231 28490019 37985780#2 37985780#7 37985780#9 37985780#10 37985780#11 37985780#12 37985780#14 37985780#16 28117272#5 1042329238 407256937#0 407256937#2 407256937#5 407256937#7 407256937#8 407256937#11 407256937#13 407256937#15 153457591#0 153457591#1 406636346#1 1190779531"/>
    </vehicle>
    <vehicle id="veh38" type="veh_passenger" depart="47.00" departLane="best">
        <route edges="28177411#3 28177411#4 28177411#5 28177411#6-AddedOnRampEdge 28177411#6 176676453 176676447#0 410359597 80446446 410359599 28172403#1 28172403#2 28172408#0 28172408#1 28176232"/>
    </vehicle>
    <vehicle id="veh39" type="veh_passenger" depart="48.24" departLane="best" departSpeed="max">
        <route edges="28117272#0 28117272#1 28117272#2 28117272#3 28117272#4 28117272#5 301866515#1 301866515#4 301866515#5 301866515#8 301866515#11 1035941619#0 1035941619#1"/>
    </vehicle>
    <vehicle id="veh40" type="veh_passenger" depart="49.47" departLane="best" departSpeed="max">
        <route edges="867859360 28123897#0 28125055 1043108985#2 1027257244 1027257245 28118326#0 28118326#5 28118326#6 28118326#8 407256937#8 407256937#11 28123893#5 28123893#6 406636346#5 28124536#0 28124550#1 28124538#0"/>
    </vehicle>
    <vehicle id="veh41" type="veh_passenger" depart="50.71" departLane="best">
        <route edges="-28250345#1 -28250344#0 301866711#6 410348019#0 198713273 410348020 410348020-AddedOffRampEdge 28171711 410348029#4 410348031 722356360#0 722356360#3 722356360#3-AddedOffRampEdge 28118565 1024989362#0-AddedOnRampEdge 1024989362#0 1042329236#0 1042329236#1 1042329236#2 1042329236#3 1170476909#0 1170476909#2 229021945#0 229021945#2 229021945#6 158410303#1 158410303#2 362658257#3 362658257#4 -230074430"/>
    </vehicle>
    <vehicle id="veh42" type="veh_passenger" depart="51.95" departLane="best">
        <route edges="-28252104#4 1042329234#3 1042329234#4 1042329234#7 1170476909#0 1170476909#2 229021945#0 229021945#2 -158408272#3 -158408272#2 28253276#2"/>
    </vehicle>
    <vehicle id="veh43" type="veh_passenger" depart="53.18" departLane="best">
        <route edges="406636346#10 406636346#12 406636346#13 406636346#14 406636346#16 406636346#18 406636346#19 406636346#20 1042329238 1042329237 301866514#2 410359601#13 389744125 1347240974 28116049#3 28116049#6"/>
    </vehicle>
    <vehicle id="veh44" type="veh_passenger" depart="54.42" departLane="best">
        <route edges="-28124547 158408625#0 158408625#1 37985780#11 37985780#12 37985780#14 37985780#16 28117272#5 1042329238 1042329237 301866514#2 410359601#13 410359601#17 410359601#19 410359601#22 410359601#24 28123894#8 28123894#9 28123894#12 220518886#1 220518886#3 220518886#5"/>
    </vehicle>
    <vehicle id="veh46" type="veh_passenger" depart="56.89" departLane="best">
        <route edges="722356362#0-AddedOnRampEdge 722356362#0 722356362#1 722356362#2-AddedOnRampEdge 722356362#2 722356362#3 1024989366 1024989366-AddedOffRampEdge 1024989365 722356357 1024989362#0-AddedOnRampEdge 1024989362#0 28176235#0 28176235#3 -28176238#2 -28176238#1 -28176238#0 410348029#1"/>
    </vehicle>
    <vehicle id="veh47" type="veh_passenger" depart="58.13" departLane="best" departSpeed="max">
        <route edges="-1035941619#1 -1035941619#0 301866515#13 301866515#14 28172407#0 176953368#0 176953368#1 176953368#4 301866114 28172400 301866391#2 301866391#3 413954727 413954728 207136497 413954732 413954731#0 410348019#0"/>
    </vehicle>
    <vehicle id="veh48" type="veh_passenger" depart="59.37" departLane="best">
        <route edges="301866391#1 301866391#2 -132951304#1 -132951304#0 28176235#12 28172403#1 28172403#2"/>
    </vehicle>
    <vehicle id="veh50" type="veh_passenger" depart="61.84" departLane="best" departSpeed="max">
        <route edges="28118328 1027257245 28118326#0 28118326#5 28118326#6 28118326#8 407256937#8 407256937#11 407256937#13 709003827"/>
    </vehicle>
    <vehicle id="veh51" type="veh_passenger" depart="63.08" departLane="best">
        <route edges="410348026#1 410348026#3 410348026#4 1027257250 1027257248 1027257246 1027257245 28118326#0 28118326#5 28118326#6 28118326#8 407256937#8 407256937#11 407256937#13 407256937#15 153457591#0 153457591#1 406636346#1 1190779531"/>
    </vehicle>
    <vehicle id="veh52" type="veh_passenger" depart="64.31" departLane="best">
        <route edges="28123909#1 407256937#7 28118326#10 28118326#11 406636346#10 406636346#12 406636346#13 406636346#14 406636346#16 406636346#18 406636346#19 406636346#20 1042329238 1042329237 301866514#2 301866514#4 1027257253#0 1027257253#0-AddedOffRampEdge 1027257253#3 1024989364"/>
    </vehicle>
    <vehicle id="veh53" type="veh_passenger" depart="65.55" departLane="best">
        <route edges="410359601#30 28118325#3 407031094#1 407031094#2 407031094#4 407031094#7 407031094#8 407031094#10 407031094#11 407031094#14 1042329236#0 1042329236#1 1042329236#2 1042329236#3 1170476909#0 301866515#1 301866515#4 301866515#5 301866515#8 301866515#11 301866515#13 301866515#14 28172407#0 176953368#0 176953368#1 176953368#4 301866114"/>
    </vehicle>
    <vehicle id="veh55" type="veh_passenger" depart="68.02" departLane="best">
        <route edges="28250334#1 -176674737#0 28177411#3 28250332#0 -28250348#1 -28250348#0 -28250350#0 28250347#3 28250347#4 410348019#2 28177411#0 -745499160"/>
    </vehicle>
    <vehicle id="veh57" type="veh_passenger" depart="70.50" departLane="best">
        <route edges="406636346#19 406636346#20 1170476909#2 229021945#0 229021945#2 229021945#6 158410303#1 158410303#2 158410303#3 158410303#4 158410303#5 158410303#6 158410303#7 -384025216 28124536#2 28124551#0 -670331704#0 28124552#1"/>
    </vehicle>
    <vehicle id="veh58" type="veh_passenger" depart="71.73" departLane="best" departSpeed="max">
        <route edges="-1035941616 -1035941617#0 37985780#9 37985780#10 37985780#11 37985780#12 37985780#14 37985780#16 229021945#0 229021945#2 229021945#6 158410303#1 158410303#2 158410303#3 158410303#4 158410303#5 158410303#6 158410303#7"/>
    </vehicle>
    <vehicle id="veh59" type="veh_passenger" depart="72.97" departLane="best" departSpeed="max">
        <route edges="-1190779531 406636346#2 406636346#3 406636346#5 406636346#6 406636346#7 406636346#8 406636346#10 406636346#12 406636346#13 406636346#14 406636346#16 406636346#18 406636346#19 406636346#20 301866515#1 301866515#4 301866515#5 301866515#8 301866515#11 301866515#13 301866515#14 28176232 37985780#2 37985780#7 37985780#9 28253286 680218137#0"/>
    </vehicle>
    <vehicle id="veh60" type="veh_passenger" depart="74.21" departLane="best">
        <route edges="410348026#3 410348026#4 1027257250 1027257248 1027257246 1027257245 28118326#0 28118326#5 28118326#6 28118326#8 407256937#8"/>
    </vehicle>
    <vehicle id="veh61" type="veh_passenger" depart="75.45" departLane="best">
        <route edges="158410303#3 28124527#3 28124527#4 28124527#6 28117275#1 -28124533"/>
    </vehicle>
    <vehicle id="veh62" type="veh_passenger" depart="76.68" departLane="best">
        <route edges="410348026#3 410348026#4 1027257250 1027257248 1027257246 1027257245 28116049#10 28116049#11 28116049#12 28116049#13 28116049#14 709003825"/>
    </vehicle>
    <vehicle id="veh63" type="veh_passenger" depart="77.92" departLane="best">
        <route edges="-28250335#1 -28250335#0 1043471253 1043471253-AddedOffRampEdge 410348027 80446446 410359599 28172403#1 28118323#8 1173835648#0 410359601#2 410359601#3 410359601#6 410359601#7 410359601#8 410359601#13 410359601#17 410359601#19 410359601#22 410359601#24 28123894#8 28123894#9 28123894#12 28123894#14 28123897#4"/>
    </vehicle>
    <vehicle id="veh64" type="veh_passenger" depart="79.16" departLane="best" departSpeed="max">
        <route edges="-28124549#5 -28124530 158410303#7 403283473#4 403283473#5 406636346#8 406636346#10 406636346#12 406636346#13 406636346#14 406636346#16 406636346#18 406636346#19 406636346#20 301866515#1 301866515#4 301866515#5 301866515#8 301866515#11 301866515#13 301866515#14 28176232 37985780#2 37985780#7"/>
    </vehicle>
    <vehicle id="veh65" type="veh_passenger" depart="80.39" departLane="best">
        <route edges="28123893#6 406636346#5 406636346#6 406636346#7 406636346#8 406636346#10 406636346#12 406636346#13 406636346#14 406636346#16 406636346#18 406636346#19 406636346#20 1042329238 1042329237 301866514#2 301866514#4 28176235#0 28176235#3"/>
    </vehicle>
    <vehicle id="veh66" type="veh_passenger" depart="81.63" departLane="best">
        <route edges="1173835648#0 -28252103#3 1193895422 1042329234#2 28252104#0 301866515#14 28172407#0 176953368#0 176953368#1 176953368#4 301866114 410359600"/>
    </vehicle>
    <vehicle id="veh67" type="veh_passenger" depart="82.87" departLane="best">
        <route edges="28118323#8 28112650#0 1042329234#0 1042329234#2 28252104#0 301866515#14 28176232 37985780#2 37985780#7 1035941617#0 1035941616"/>
    </vehicle>
    <vehicle id="veh68" type="veh_passenger" depart="84.10" departLane="best">
        <route edges="28171708#0 410348709#0 410348709#1 410348709#1-AddedOffRampEdge 1043471254 1043471253 1043471253-AddedOffRampEdge 410348027 80446446 410359599 28172403#1 28118323#8 28112650#0 1042329234#0 1042329234#2 1042329234#3 1042329234#4 1042329234#7 407256937#0 196800032#0 196800032#1 406636346#18 28124533 362658256#0"/>
    </vehicle>
    <vehicle id="veh69" type="veh_passenger" depart="85.34" departLane="best">
        <route edges="1027257246 1027257245 28118326#0 28118326#5 28118326#6 28118326#8 407256937#8 407256937#11 28123893#5 28123893#6 406636346#5 28124536#0 28124536#1 384025216 403283473#4 158410296#0"/>
    </vehicle>
    <vehicle id="veh70" type="veh_passenger" depart="86.58" departLane="best">
        <route edges="80677008 228038463 410348026#4 1027257250 1027257248 1027257246 1027257245 28118326#0 407031094#7 407031094#8 407031094#10 407031094#11 407031094#14 1042329236#0 1042329236#1 1042329236#2 1042329236#3 1170476909#0 301866515#1 301866515#4 301866515#5 301866515#8 301866515#11 301866515#13 301866515#14 28172407#0 176953368#0 176953368#1 176953368#4 301866113"/>
    </vehicle>
    <vehicle id="veh72" type="veh_passenger" depart="89.05" departLane="best">
        <route edges="28489881#2 -1091867612#1 37985780#7 37985780#9 37985780#10 37985780#11 37985780#12 301866501 301866515#5 301866515#8 301866515#11 301866515#13 301866515#14 28172407#0 176953368#0 176953368#1 28118323#8 28112650#0 1042329234#0"/>
    </vehicle>
    <vehicle id="veh74" type="veh_passenger" depart="91.52" departLane="best">
        <route edges="1042329234#7 1170476909#0 301866515#1 301866515#4 301866515#5 301866515#8 301866515#11 1035941619#0 1035941619#1"/>
    </vehicle>
    <vehicle id="veh75" type="veh_passenger" depart="92.76" departLane="best" departSpeed="max">
        <route edges="28124550#1 28124538#0 406636346#3 406636346#5 406636346#6 406636346#7 406636346#8 406636346#10 406636346#12 406636346#13 406636346#14 406636346#16 406636346#18 406636346#19 406636346#20 301866515#1 301866515#4 301866515#5 301866515#8 301866515#11 301866515#13 301866515#14 28176232 37985780#2 37985780#7 37985780#9 28253286 680218137#0 680218137#1 680218140 28253372"/>
    </vehicle>
    <vehicle id="veh76" type="veh_passenger" depart="94.00" departLane="best">
        <route edges="1042329234#7 1170476909#0 301866515#1 301866515#4 301866515#5 301866515#8 301866515#11 301866515#13 301866515#14 28172407#0 176953368#0 176953368#1 176953368#4 301866114 410359600 229024629 410359596 441998021"/>
    </vehicle>
    <vehicle id="veh77" type="veh_passenger" depart="95.23" departLane="best" departSpeed="max">
        <route edges="410344191 410348019#0 198713273 410348020 410348020-AddedOffRampEdge 28171711 410348029#4 410348031 722356360#0 722356360#3 722356360#3-AddedOffRampEdge 28118565 1024989362#0-AddedOnRampEdge 1024989362#0 1042329236#0 1042329236#1 1042329236#2 1042329236#3 407256937#0 407256937#2 407256937#5 407256937#7 407256937#8 407256937#11 28123893#5 28123893#6 406636346#5 28124536#0 -28124550#0"/>
    </vehicle>
    <vehicle id="veh78" type="veh_passenger" depart="96.47" departLane="best">
        <route edges="1170476909#0 301866515#1 301866515#4 301866515#5 301866515#8 301866515#11 301866515#13 301866515#14 28172407#0 176953368#0 176953368#1 176953368#4 301866114 410359600 301866390#1 301866390#2"/>
    </vehicle>
    <vehicle id="veh79" type="veh_passenger" depart="97.71" departLane="best">
        <route edges="1027257253#3 722356357 1024989362#0-AddedOnRampEdge 1024989362#0 1042329236#0 1042329236#1 1042329236#2 28252103#0 28252103#1 391085865"/>
    </vehicle>
    <vehicle id="veh80" type="veh_passenger" depart="98.94" departLane="best" departSpeed="max">
        <route edges="631123362#0 631123362#1 631123362#2 28117272#2 28117272#3 28117272#4 28117272#5 301866515#1 301866515#4 301866515#5 301866515#8 301866515#11 301866515#13 301866515#14 28172407#0 176953368#0 176953368#1 176953368#4 301866114 410359600 229024629 410359596 28250334#0 28250335#2 28177411#5 28177411#6-AddedOnRampEdge 28177411#6"/>
    </vehicle>
    <vehicle id="veh81" type="veh_passenger" depart="100.18" departLane="best">
        <route edges="28123893#4 28123893#5 28123893#6 406636346#5 406636346#6 406636346#7 406636346#8 406636346#10 406636346#12 406636346#13 406636346#14"/>
    </vehicle>
    <vehicle id="veh82" type="veh_passenger" depart="101.42" departLane="best">
        <route edges="406636346#5 406636346#6 406636346#7 406636346#8 406636346#10 406636346#12 406636346#13 406636346#14 406636346#16 406636346#18 406636346#19 406636346#20 1042329238 1042329237 301866514#2 301866514#4 1027257253#0 1027257253#0-AddedOffRampEdge 28118568#0 410348026#1 410348026#3 410348026#4 1027257250 1027257248 1027257246 1027257243"/>
    </vehicle>
    <vehicle id="veh83" type="veh_passenger" depart="102.66" departLane="best">
        <route edges="-28250347#2 -28250347#1 28250341#3 28250341#4 28250341#5 28177411#3 28177411#4 28177411#5 28177411#6-AddedOnRampEdge 28177411#6 176676453 176676447#0 410359597 80446446 410359599 28172403#1 28118323#8 28112650#0 1042329234#0 1042329234#2 1042329234#3 1042329234#4 1042329234#7 407256937#0 407256937#2 196800057#0 196800057#1 406636346#13 406636346#14 28117275#0"/>
    </vehicle>
    <vehicle id="veh84" type="veh_passenger" depart="103.89" departLane="best">
        <route edges="28118323#8 28112650#0 1042329234#0 1042329234#2 1042329234#3 1042329234#4 1042329234#7 407256937#0 407256937#2 407256937#5 407256937#7 407256937#8 407256937#11 28123893#5 28123893#6"/>
    </vehicle>
    <vehicle id="veh85" type="veh_passenger" depart="105.13" departLane="best">
        <route edges="362658257#0 28124546#2 28124546#3 28117272#4 28117272#5 301866515#1 301866515#4 301866515#5 301866515#8 301866515#11 301866515#13 301866515#14 28172407#0 176953368#0 176953368#1 176953368#4 301866114 410359600 301866390#1 301866390#2"/>
    </vehicle>
    <vehicle id="veh86" type="veh_passenger" depart="106.37" departLane="best" departSpeed="max">
        <route edges="740005657 28123897#0 28125055 1043108985#2 1027257244 1027257243 722356362#0-AddedOnRampEdge 722356362#0 722356362#1 722356362#2-AddedOnRampEdge 722356362#2 722356362#3 1024989366 1024989366-AddedOffRampEdge 1024989365 1021305072#0 1021305072#1-AddedOnRampEdge 1021305072#1 220518884#0 410348028#0-AddedOnRampEdge 410348028#0 410348028#0-AddedOffRampEdge 410348028#3 410348709#0 -176674737#2 -176674737#1 -176674737#0 28177411#3 28250332#0 -28250348#1 -28250348#0"/>
    </vehicle>
    <vehicle id="veh87" type="veh_passenger" depart="107.60" departLane="best" departSpeed="max">
        <route edges="28117272#0 28117272#1 28117272#2 28117272#3 28117272#4 28117272#5 1042329238 1042329237 301866514#2 301866514#4 1027257253#0 1027257253#0-AddedOffRampEdge 28118568#0 410348026#1 410348026#3 410348026#4 1027257250 28118555 158592562-AddedOnRampEdge 158592562"/>
    </vehicle>
    <vehicle id="veh88" type="veh_passenger" depart="108.84" departLane="best">
        <route edges="410348019#0 410348019#1 410348019#2 410348019#3 410348019#4 28171708#0 410348709#0 410348709#1 410348709#1-AddedOffRampEdge 1043471254 1043471253 1043471253-AddedOffRampEdge"/>
    </vehicle>
    <vehicle id="veh89" type="veh_passenger" depart="110.08" departLane="best">
        <route edges="1024989366 1024989366-AddedOffRampEdge 1024989365 722356357 1024989362#0-AddedOnRampEdge 1024989362#0 1042329236#0 1042329236#1 1042329236#2 1042329236#3 407256937#0 407256937#2 407256937#5 407256937#7 28118326#10 28118326#11"/>
    </vehicle>
    <vehicle id="veh90" type="veh_passenger" depart="111.31" departLane="best">