<?xml version="1.0" encoding="UTF-8"?>

<!-- generated on 2025-04-20 00:15:51.191058 by randomTrips.py v1_22_0+0002-63e50f52594
<configuration>
    <net-file value="osm.net.xml.gz"/>
    <output-trip-file value="osm.passenger.trips.xml"/>
    <route-file value="osm.passenger.rou.xml"/>
    <prefix value="veh"/>
    <trip-attributes value="departLane=&quot;best&quot;"/>
    <fringe-start-attributes value="departSpeed=&quot;max&quot;"/>
    <vehicle-class value="passenger"/>
    <lanes value="True"/>
    <fringe-factor value="5"/>
    <allow-fringe.min-length value="1000.0"/>
    <via-edge-types value="highway.motorway,highway.motorway_link,highway.trunk_link,highway.primary_link,highway.secondary_link,highway.tertiary_link"/>
    <min-distance value="300.0"/>
    <min-distance.fringe value="10.0"/>
    <remove-loops value="True"/>
    <validate value="True"/>
    <insertion-density value="25.0"/>
</configuration>
-->

<!-- generated on 2025-04-20 00:15:50 by Eclipse SUMO duarouter Version 1.22.0
<duarouterConfiguration xmlns:xsi="http://www.w3.org/2001/XMLSchema-instance" xsi:noNamespaceSchemaLocation="http://sumo.dlr.de/xsd/duarouterConfiguration.xsd">

    <input>
        <net-file value="osm.net.xml.gz"/>
        <route-files value="osm.passenger.trips.xml"/>
    </input>

    <output>
        <output-file value="osm.passenger.trips.xml.tmp"/>
        <alternatives-output value="NUL"/>
        <write-trips value="true"/>
    </output>

    <processing>
        <remove-loops value="true"/>
    </processing>

    <time>
        <begin value="0.0"/>
        <end value="3600.0"/>
    </time>

    <report>
        <no-warnings value="true"/>
        <ignore-errors value="true"/>
        <no-step-log value="true"/>
    </report>

</duarouterConfiguration>
-->

<routes xmlns:xsi="http://www.w3.org/2001/XMLSchema-instance" xsi:noNamespaceSchemaLocation="http://sumo.dlr.de/xsd/routes_file.xsd">
    <vType id="veh_passenger" vClass="passenger"/>
    <trip id="veh0" type="veh_passenger" depart="0.00" departLane="best" from="132951280#3" to="1042329234#0"/>
    <trip id="veh2" type="veh_passenger" depart="2.47" departLane="best" from="410359597" to="-28176243#1"/>
    <trip id="veh3" type="veh_passenger" depart="3.71" departLane="best" from="28118323#8" to="132951313#2"/>
    <trip id="veh4" type="veh_passenger" depart="4.95" departLane="best" departSpeed="max" from="1035941618" to="28124534#4"/>
    <trip id="veh5" type="veh_passenger" depart="6.18" departLane="best" from="-1285895521" to="1027257248"/>
    <trip id="veh6" type="veh_passenger" depart="7.42" departLane="best" from="28253273#1" to="28176235#0"/>
    <trip id="veh7" type="veh_passenger" depart="8.66" departLane="best" from="1042329234#0" to="28250340#0"/>
    <trip id="veh9" type="veh_passenger" depart="11.13" departLane="best" from="406636346#20" to="301866515#24"/>
    <trip id="veh10" type="veh_passenger" depart="12.37" departLane="best" from="28117272#4" to="80677003"/>
    <trip id="veh11" type="veh_passenger" depart="13.60" departLane="best" from="722356357" to="158592562"/>
    <trip id="veh12" type="veh_passenger" depart="14.84" departLane="best" from="407256937#5" to="28250347#3"/>
    <trip id="veh13" type="veh_passenger" depart="16.08" departLane="best" from="406636346#3" to="362658256#0"/>
    <trip id="veh14" type="veh_passenger" depart="17.32" departLane="best" departSpeed="max" from="28125035" to="722356360#3-AddedOffRampEdge"/>
    <trip id="veh15" type="veh_passenger" depart="18.55" departLane="best" departSpeed="max" from="280670457#0" to="28176238#0"/>
    <trip id="veh16" type="veh_passenger" depart="19.79" departLane="best" from="407031094#4" to="28252112#2"/>
    <trip id="veh17" type="veh_passenger" depart="21.03" departLane="best" from="410348019#0" to="28250332#0"/>
    <trip id="veh18" type="veh_passenger" depart="22.26" departLane="best" from="301866515#8" to="196800057#1"/>
    <trip id="veh19" type="veh_passenger" depart="23.50" departLane="best" from="1042329234#4" to="132951313#1"/>
    <trip id="veh20" type="veh_passenger" depart="24.74" departLane="best" from="28125045#0" to="1170476909#0"/>
    <trip id="veh21" type="veh_passenger" depart="25.97" departLane="best" departSpeed="max" from="-28250349" to="125076885#2"/>
    <trip id="veh22" type="veh_passenger" depart="27.21" departLane="best" from="28252111#1" to="220518886#0"/>
    <trip id="veh23" type="veh_passenger" depart="28.45" departLane="best" departSpeed="max" from="280670457#0" to="1027257253#3"/>
    <trip id="veh24" type="veh_passenger" depart="29.68" departLane="best" departSpeed="max" from="28253273#0" to="28250349"/>
    <trip id="veh25" type="veh_passenger" depart="30.92" departLane="best" departSpeed="max" from="-709003830" to="362658256#0"/>
    <trip id="veh26" type="veh_passenger" depart="32.16" departLane="best" departSpeed="max" from="-709003827" to="220518886#5"/>
    <trip id="veh27" type="veh_passenger" depart="33.39" departLane="best" departSpeed="max" from="745499160" to="28489881#3"/>
    <trip id="veh28" type="veh_passenger" depart="34.63" departLane="best" departSpeed="max" from="28176231" to="301866391#3"/>
    <trip id="veh30" type="veh_passenger" depart="37.10" departLane="best" from="1042329234#7" to="153457591#1"/>
    <trip id="veh31" type="veh_passenger" depart="38.34" departLane="best" from="176676447#0" to="1191712781"/>
    <trip id="veh32" type="veh_passenger" depart="39.58" departLane="best" from="1027257253#0-AddedOffRampEdge" to="709003824"/>
    <trip id="veh33" type="veh_passenger" depart="40.81" departLane="best" from="410348026#1" to="158410296#3"/>
    <trip id="veh34" type="veh_passenger" depart="42.05" departLane="best" from="28253276#1" to="229021945#8"/>
    <trip id="veh35" type="veh_passenger" depart="43.29" departLane="best" from="410359601#7" to="28123893#0"/>
    <trip id="veh36" type="veh_passenger" depart="44.53" departLane="best" from="1173835648#0" to="1043471253"/>
    <trip id="veh37" type="veh_passenger" depart="45.76" departLane="best" departSpeed="max" from="28176231" to="1190779531"/>
    <trip id="veh38" type="veh_passenger" depart="47.00" departLane="best" from="28177411#3" to="28176232"/>
    <trip id="veh39" type="veh_passenger" depart="48.24" departLane="best" departSpeed="max" from="28117272#0" to="1035941619#1"/>
    <trip id="veh40" type="veh_passenger" depart="49.47" departLane="best" departSpeed="max" from="867859360" to="28124538#0"/>
    <trip id="veh41" type="veh_passenger" depart="50.71" departLane="best" from="-28250345#1" to="-230074430"/>
    <trip id="veh42" type="veh_passenger" depart="51.95" departLane="best" from="-28252104#4" to="28253276#2"/>
    <trip id="veh43" type="veh_passenger" depart="53.18" departLane="best" from="406636346#10" to="28116049#6"/>
    <trip id="veh44" type="veh_passenger" depart="54.42" departLane="best" from="-28124547" to="220518886#5"/>
    <trip id="veh46" type="veh_passenger" depart="56.89" departLane="best" from="722356362#0-AddedOnRampEdge" to="410348029#1"/>
    <trip id="veh47" type="veh_passenger" depart="58.13" departLane="best" departSpeed="max" from="-1035941619#1" to="410348019#0"/>
    <trip id="veh48" type="veh_passenger" depart="59.37" departLane="best" from="301866391#1" to="28172403#2"/>
    <trip id="veh50" type="veh_passenger" depart="61.84" departLane="best" departSpeed="max" from="28118328" to="709003827"/>
    <trip id="veh51" type="veh_passenger" depart="63.08" departLane="best" from="410348026#1" to="1190779531"/>
    <trip id="veh52" type="veh_passenger" depart="64.31" departLane="best" from="28123909#1" to="1024989364"/>
    <trip id="veh53" type="veh_passenger" depart="65.55" departLane="best" from="410359601#30" to="301866114"/>
    <trip id="veh55" type="veh_passenger" depart="68.02" departLane="best" from="28250334#1" to="-745499160"/>
    <trip id="veh57" type="veh_passenger" depart="70.50" departLane="best" from="406636346#19" to="28124552#1"/>
    <trip id="veh58" type="veh_passenger" depart="71.73" departLane="best" departSpeed="max" from="-1035941616" to="158410303#7"/>
    <trip id="veh59" type="veh_passenger" depart="72.97" departLane="best" departSpeed="max" from="-1190779531" to="680218137#0"/>
    <trip id="veh60" type="veh_passenger" depart="74.21" departLane="best" from="410348026#3" to="407256937#8"/>
    <trip id="veh61" type="veh_passenger" depart="75.45" departLane="best" from="158410303#3" to="-28124533"/>
    <trip id="veh62" type="veh_passenger" depart="76.68" departLane="best" from="410348026#3" to="709003825"/>
    <trip id="veh63" type="veh_passenger" depart="77.92" departLane="best" from="-28250335#1" to="28123897#4"/>
    <trip id="veh64" type="veh_passenger" depart="79.16" departLane="best" departSpeed="max" from="-28124549#5" to="37985780#7"/>
    <trip id="veh65" type="veh_passenger" depart="80.39" departLane="best" from="28123893#6" to="28176235#3"/>
    <trip id="veh66" type="veh_passenger" depart="81.63" departLane="best" from="1173835648#0" to="410359600"/>
    <trip id="veh67" type="veh_passenger" depart="82.87" departLane="best" from="28118323#8" to="1035941616"/>
    <trip id="veh68" type="veh_passenger" depart="84.10" departLane="best" from="28171708#0" to="362658256#0"/>
    <trip id="veh69" type="veh_passenger" depart="85.34" departLane="best" from="1027257246" to="158410296#0"/>
    <trip id="veh70" type="veh_passenger" depart="86.58" departLane="best" from="80677008" to="301866113"/>
    <trip id="veh72" type="veh_passenger" depart="89.05" departLane="best" from="28489881#2" to="1042329234#0"/>
    <trip id="veh74" type="veh_passenger" depart="91.52" departLane="best" from="1042329234#7" to="1035941619#1"/>
    <trip id="veh75" type="veh_passenger" depart="92.76" departLane="best" departSpeed="max" from="28124550#1" to="28253372"/>
    <trip id="veh76" type="veh_passenger" depart="94.00" departLane="best" from="1042329234#7" to="441998021"/>
    <trip id="veh77" type="veh_passenger" depart="95.23" departLane="best" departSpeed="max" from="410344191" to="-28124550#0"/>
    <trip id="veh78" type="veh_passenger" depart="96.47" departLane="best" from="1170476909#0" to="301866390#2"/>
    <trip id="veh79" type="veh_passenger" depart="97.71" departLane="best" from="1027257253#3" to="391085865"/>
    <trip id="veh80" type="veh_passenger" depart="98.94" departLane="best" departSpeed="max" from="631123362#0" to="28177411#6"/>
    <trip id="veh81" type="veh_passenger" depart="100.18" departLane="best" from="28123893#4" to="406636346#14"/>
    <trip id="veh82" type="veh_passenger" depart="101.42" departLane="best" from="406636346#5" to="1027257243"/>
    <trip id="veh83" type="veh_passenger" depart="102.66" departLane="best" from="-28250347#2" to="28117275#0"/>
    <trip id="veh84" type="veh_passenger" depart="103.89" departLane="best" from="28118323#8" to="28123893#6"/>
    <trip id="veh85" type="veh_passenger" depart="105.13" departLane="best" from="362658257#0" to="301866390#2"/>
    <trip id="veh86" type="veh_passenger" depart="106.37" departLane="best" departSpeed="max" from="740005657" to="-28250348#0"/>
    <trip id="veh87" type="veh_passenger" depart="107.60" departLane="best" departSpeed="max" from="28117272#0" to="158592562"/>
    <trip id="veh88" type="veh_passenger" depart="108.84" departLane="best" from="410348019#0" to="1043471253-AddedOffRampEdge"/>
    <trip id="veh89" type="veh_passenger" depart="110.08" departLane="best" from="1024989366" to="28118326#11"/>
    <trip id="veh90" type="veh_passenger" depart="111.31" departLane="best" from="28118323#8" to="125076885#2"/>
    <trip id="veh91" type="veh_passenger" depart="112.55" departLane="best" departSpeed="max" from="1043108985#0" to="679796177"/>
    <trip id="veh92" type="veh_passenger" depart="113.79" departLane="best" from="28118326#11" to="410348029#3"/>
    <trip id="veh93" type="veh_passenger" depart="115.02" departLane="best" departSpeed="max" from="28176231" to="-28123899#2"/>
    <trip id="veh94" type="veh_passenger" depart="116.26" departLane="best" departSpeed="max" from="867859360" to="410348019#0"/>
    <trip id="veh95" type="veh_passenger" depart="117.50" departLane="best" from="722356362#0" to="679796177"/>
    <trip id="veh96" type="veh_passenger" depart="118.73" departLane="best" from="407256937#7" to="1027257253#0"/>
    <trip id="veh97" type="veh_passenger" depart="119.97" departLane="best" from="28123894#8" to="1035941617#0"/>
    <trip id="veh99" type="veh_passenger" depart="122.44" departLane="best" departSpeed="max" from="280670457#0" to="722356362#1"/>
    <trip id="veh100" type="veh_passenger" depart="123.68" departLane="best" from="1173835648#0" to="406636346#14"/>
    <trip id="veh101" type="veh_passenger" depart="124.92" departLane="best" departSpeed="max" from="28118328" to="158410303#1"/>
    <trip id="veh102" type="veh_passenger" depart="126.15" departLane="best" from="722356357" to="80445170"/>
    <trip id="veh103" type="veh_passenger" depart="127.39" departLane="best" departSpeed="max" from="28176231" to="301866711#3"/>
    <trip id="veh105" type="veh_passenger" depart="129.86" departLane="best" from="722356362#0" to="28250332#2"/>
    <trip id="veh106" type="veh_passenger" depart="131.10" departLane="best" from="28172403#1" to="37985780#10"/>
    <trip id="veh107" type="veh_passenger" depart="132.34" departLane="best" from="-28123901#5" to="-28250335#1"/>
    <trip id="veh108" type="veh_passenger" depart="133.58" departLane="best" from="28124527#3" to="410348026#3"/>
    <trip id="veh110" type="veh_passenger" depart="136.05" departLane="best" from="-28176238#0" to="1024989366"/>
    <trip id="veh111" type="veh_passenger" depart="137.29" departLane="best" from="28177411#6-AddedOnRampEdge" to="301866390#2"/>
    <trip id="veh112" type="veh_passenger" depart="138.52" departLane="best" from="1042329236#3" to="-28489881#1"/>
    <trip id="veh114" type="veh_passenger" depart="141.00" departLane="best" departSpeed="max" from="28118323#0" to="-28250335#0"/>
    <trip id="veh115" type="veh_passenger" depart="142.23" departLane="best" from="28124548#3" to="680218140"/>
    <trip id="veh116" type="veh_passenger" depart="143.47" departLane="best" from="1027257248" to="301866711#2"/>
    <trip id="veh117" type="veh_passenger" depart="144.71" departLane="best" from="1170476909#0" to="229021945#8"/>
    <trip id="veh118" type="veh_passenger" depart="145.94" departLane="best" from="28490019" to="158408900"/>
    <trip id="veh119" type="veh_passenger" depart="147.18" departLane="best" from="176676447#0" to="37985780#12"/>
    <trip id="veh120" type="veh_passenger" depart="148.42" departLane="best" departSpeed="max" from="28124550#1" to="28123893#0"/>
    <trip id="veh121" type="veh_passenger" depart="149.65" departLane="best" departSpeed="max" from="867859360" to="80446446"/>
    <trip id="veh122" type="veh_passenger" depart="150.89" departLane="best" departSpeed="max" from="28124550#1" to="1035941616"/>
    <trip id="veh123" type="veh_passenger" depart="152.13" departLane="best" from="1173835648#0" to="680218137#1"/>
    <trip id="veh124" type="veh_passenger" depart="153.36" departLane="best" from="410348026#4" to="410359601#2"/>
    <trip id="veh125" type="veh_passenger" depart="154.60" departLane="best" departSpeed="max" from="280670457#0" to="1021305072#0"/>
    <trip id="veh126" type="veh_passenger" depart="155.84" departLane="best" from="407256937#0" to="301866515#29"/>
    <trip id="veh127" type="veh_passenger" depart="157.07" departLane="best" from="28250335#2" to="722356362#2"/>
    <trip id="veh129" type="veh_passenger" depart="159.55" departLane="best" departSpeed="max" from="407031094#0" to="158408625#1"/>
    <trip id="veh130" type="veh_passenger" depart="160.79" departLane="best" departSpeed="max" from="28254238#0" to="709003823"/>
    <trip id="veh132" type="veh_passenger" depart="163.26" departLane="best" from="1321841498" to="28250348#0"/>
    <trip id="veh133" type="veh_passenger" depart="164.50" departLane="best" from="301866711#2" to="1027257250"/>
    <trip id="veh134" type="veh_passenger" depart="165.73" departLane="best" from="-28252104#4" to="1190779531"/>
    <trip id="veh135" type="veh_passenger" depart="166.97" departLane="best" from="28123897#0" to="441998021"/>
    <trip id="veh136" type="veh_passenger" depart="168.21" departLane="best" from="407256937#5" to="-28250344#0"/>
    <trip id="veh137" type="veh_passenger" depart="169.44" departLane="best" from="28118323#8" to="125076885#2"/>
    <trip id="veh138" type="veh_passenger" depart="170.68" departLane="best" departSpeed="max" from="-1035941616" to="403283473#5"/>
    <trip id="veh139" type="veh_passenger" depart="171.92" departLane="best" from="37985780#0" to="28176235#9"/>
    <trip id="veh140" type="veh_passenger" depart="173.15" departLane="best" departSpeed="max" from="28118325#0" to="1091867612#0"/>
    <trip id="veh141" type="veh_passenger" depart="174.39" departLane="best" from="-28124552#0" to="410359601#24"/>
    <trip id="veh142" type="veh_passenger" depart="175.63" departLane="best" from="410359601#19" to="28176235#0"/>
    <trip id="veh143" type="veh_passenger" depart="176.86" departLane="best" from="407256937#11" to="28250334#2"/>
    <trip id="veh145" type="veh_passenger" depart="179.34" departLane="best" from="158410303#4" to="413954731#0"/>
    <trip id="veh146" type="veh_passenger" depart="180.57" departLane="best" from="406636346#14" to="410348029#1"/>
    <trip id="veh147" type="veh_passenger" depart="181.81" departLane="best" from="410359600" to="1035941616"/>
    <trip id="veh148" type="veh_passenger" depart="183.05" departLane="best" departSpeed="max" from="1043108985#0" to="28252103#1"/>
    <trip id="veh149" type="veh_passenger" depart="184.28" departLane="best" departSpeed="max" from="404462143" to="410359601#27"/>
    <trip id="veh150" type="veh_passenger" depart="185.52" departLane="best" from="28117272#3" to="28252119"/>
    <trip id="veh152" type="veh_passenger" depart="187.99" departLane="best" from="410348019#2" to="722356360#5"/>
    <trip id="veh153" type="veh_passenger" depart="189.23" departLane="best" from="406636346#7" to="410359601#22"/>
    <trip id="veh154" type="veh_passenger" depart="190.47" departLane="best" from="1193895422" to="362658257#3"/>
    <trip id="veh155" type="veh_passenger" depart="191.71" departLane="best" from="1027257244" to="680218137#1"/>
    <trip id="veh156" type="veh_passenger" depart="192.94" departLane="best" from="406636346#19" to="410348029#4"/>
    <trip id="veh157" type="veh_passenger" depart="194.18" departLane="best" from="406636346#7" to="1191712781"/>
    <trip id="veh158" type="veh_passenger" depart="195.42" departLane="best" departSpeed="max" from="406636346#0" to="-28252112#0"/>
    <trip id="veh159" type="veh_passenger" depart="196.65" departLane="best" from="1042329234#2" to="407256937#11"/>
    <trip id="veh160" type="veh_passenger" depart="197.89" departLane="best" departSpeed="max" from="28118566#0" to="158409652"/>
    <trip id="veh161" type="veh_passenger" depart="199.13" departLane="best" from="406636346#13" to="1042329234#3"/>
    <trip id="veh162" type="veh_passenger" depart="200.36" departLane="best" departSpeed="max" from="-1191712781" to="1027257244"/>
    <trip id="veh163" type="veh_passenger" depart="201.60" departLane="best" from="196800057#1" to="410359596"/>
    <trip id="veh164" type="veh_passenger" depart="202.84" departLane="best" from="722356360#5" to="1285895521"/>
    <trip id="veh165" type="veh_passenger" depart="204.07" departLane="best" departSpeed="max" from="28252118#0" to="229024626"/>
    <trip id="veh166" type="veh_passenger" depart="205.31" departLane="best" from="722356362#2-AddedOnRampEdge" to="28172403#1"/>
    <trip id="veh168" type="veh_passenger" depart="207.78" departLane="best" from="722356362#0-AddedOnRampEdge" to="1024989364"/>
    <trip id="veh169" type="veh_passenger" depart="209.02" departLane="best" from="722356360#3-AddedOffRampEdge" to="1190779531"/>
    <trip id="veh170" type="veh_passenger" depart="210.26" departLane="best" from="-28252103#3" to="28118323#8"/>
    <trip id="veh171" type="veh_passenger" depart="211.49" departLane="best" from="28250332#3" to="-28124546#2"/>
    <trip id="veh173" type="veh_passenger" depart="213.97" departLane="best" from="1043471253" to="301866515#5"/>
    <trip id="veh174" type="veh_passenger" depart="215.20" departLane="best" departSpeed="max" from="-1035941616" to="679796177"/>
    <trip id="veh175" type="veh_passenger" depart="216.44" departLane="best" from="28125055" to="301866711#4"/>
    <trip id="veh176" type="veh_passenger" depart="217.68" departLane="best" from="37985780#0" to="301866390#2"/>
    <trip id="veh177" type="veh_passenger" depart="218.92" departLane="best" departSpeed="max" from="28036986" to="-28124550#0"/>
    <trip id="veh178" type="veh_passenger" depart="220.15" departLane="best" departSpeed="max" from="28254238#0" to="158414301"/>
    <trip id="veh179" type="veh_passenger" depart="221.39" departLane="best" from="176676447#0" to="410348026#0"/>
    <trip id="veh180" type="veh_passenger" depart="222.63" departLane="best" from="301866711#4" to="158409652"/>
    <trip id="veh181" type="veh_passenger" depart="223.86" departLane="best" from="158410303#5" to="28112650#0"/>
    <trip id="veh182" type="veh_passenger" depart="225.10" departLane="best" departSpeed="max" from="28117272#0" to="-158408272#1"/>
    <trip id="veh183" type="veh_passenger" depart="226.34" departLane="best" departSpeed="max" from="-293075487" to="28116049#2"/>
    <trip id="veh185" type="veh_passenger" depart="228.81" departLane="best" from="410359601#19" to="28252104#0"/>
    <trip id="veh186" type="veh_passenger" depart="230.05" departLane="best" from="158410296#2" to="301866114"/>
    <trip id="veh187" type="veh_passenger" depart="231.28" departLane="best" departSpeed="max" from="-1035941616" to="132951310#0"/>
    <trip id="veh188" type="veh_passenger" depart="232.52" departLane="best" departSpeed="max" from="28118325#0" to="28250332#4"/>
    <trip id="veh189" type="veh_passenger" depart="233.76" departLane="best" from="37985780#12" to="28123893#4"/>
    <trip id="veh190" type="veh_passenger" depart="234.99" departLane="best" from="28118326#10" to="1035941617#0"/>
    <trip id="veh191" type="veh_passenger" depart="236.23" departLane="best" from="28123893#4" to="43007533"/>
    <trip id="veh192" type="veh_passenger" depart="237.47" departLane="best" from="406636346#14" to="1024989362#0-AddedOnRampEdge"/>
    <trip id="veh193" type="veh_passenger" depart="238.70" departLane="best" from="-28176243#1" to="28124548#2"/>
    <trip id="veh194" type="veh_passenger" depart="239.94" departLane="best" from="28252103#2" to="158592562"/>
    <trip id="veh195" type="veh_passenger" depart="241.18" departLane="best" departSpeed="max" from="407031094#0" to="37985780#12"/>
    <trip id="veh196" type="veh_passenger" depart="242.41" departLane="best" departSpeed="max" from="293075488" to="1042329234#0"/>
    <trip id="veh197" type="veh_passenger" depart="243.65" departLane="best" from="1027257245" to="-132951298"/>
    <trip id="veh198" type="veh_passenger" depart="244.89" departLane="best" departSpeed="max" from="1043108985#0" to="28123894#2"/>
    <trip id="veh199" type="veh_passenger" depart="246.12" departLane="best" from="407256937#7" to="28124551#0"/>
    <trip id="veh200" type="veh_passenger" depart="247.36" departLane="best" departSpeed="max" from="28118323#0" to="28253372"/>
    <trip id="veh201" type="veh_passenger" depart="248.60" departLane="best" from="1024989366-AddedOffRampEdge" to="301866515#20"/>
    <trip id="veh204" type="veh_passenger" depart="252.31" departLane="best" from="37985780#14" to="403283473#4"/>
    <trip id="veh205" type="veh_passenger" depart="253.55" departLane="best" from="-28252103#0" to="229021945#6"/>
    <trip id="veh206" type="veh_passenger" depart="254.78" departLane="best" from="1021305072#0" to="709003828"/>
    <trip id="veh207" type="veh_passenger" depart="256.02" departLane="best" from="28124546#1" to="-230074430"/>
    <trip id="veh208" type="veh_passenger" depart="257.26" departLane="best" departSpeed="max" from="1043108985#0" to="410348026#0"/>
    <trip id="veh209" type="veh_passenger" depart="258.49" departLane="best" departSpeed="max" from="28118566#0" to="407031094#1"/>
    <trip id="veh210" type="veh_passenger" depart="259.73" departLane="best" departSpeed="max" from="28489881#0" to="722356362#2"/>
    <trip id="veh211" type="veh_passenger" depart="260.97" departLane="best" from="28177411#6-AddedOnRampEdge" to="709003826"/>
    <trip id="veh212" type="veh_passenger" depart="262.20" departLane="best" from="410359596" to="28252103#0"/>
    <trip id="veh213" type="veh_passenger" depart="263.44" departLane="best" from="301866711#3" to="28124534#3"/>
    <trip id="veh214" type="veh_passenger" depart="264.68" departLane="best" from="407031094#7" to="28176235#12"/>
    <trip id="veh215" type="veh_passenger" depart="265.91" departLane="best" from="410359599" to="410359601#8"/>
    <trip id="veh216" type="veh_passenger" depart="267.15" departLane="best" from="28123893#5" to="1175300515#0"/>
    <trip id="veh217" type="veh_passenger" depart="268.39" departLane="best" departSpeed="max" from="1043108985#0" to="28489881#3"/>
    <trip id="veh218" type="veh_passenger" depart="269.62" departLane="best" departSpeed="max" from="391085864" to="28124549#5"/>
    <trip id="veh219" type="veh_passenger" depart="270.86" departLane="best" from="-28250347#4" to="125076885#0"/>
    <trip id="veh220" type="veh_passenger" depart="272.10" departLane="best" departSpeed="max" from="-28124552#1" to="-132951304#0"/>
    <trip id="veh221" type="veh_passenger" depart="273.33" departLane="best" from="1285895522#0" to="158410303#1"/>
    <trip id="veh222" type="veh_passenger" depart="274.57" departLane="best" from="28171708#0" to="-404462142"/>
    <trip id="veh223" type="veh_passenger" depart="275.81" departLane="best" from="1042329236#0" to="301866515#13"/>
    <trip id="veh224" type="veh_passenger" depart="277.05" departLane="best" from="301866698#0" to="-28124546#4"/>
    <trip id="veh225" type="veh_passenger" depart="278.28" departLane="best" from="28117272#4" to="28172407#0"/>
    <trip id="veh226" type="veh_passenger" depart="279.52" departLane="best" departSpeed="max" from="28118323#0" to="1027257253#0-AddedOffRampEdge"/>
    <trip id="veh227" type="veh_passenger" depart="280.76" departLane="best" departSpeed="max" from="28118323#0" to="441998021"/>
    <trip id="veh228" type="veh_passenger" depart="281.99" departLane="best" from="28177411#2" to="301866515#14"/>
    <trip id="veh229" type="veh_passenger" depart="283.23" departLane="best" departSpeed="max" from="410344191" to="389744125"/>
    <trip id="veh231" type="veh_passenger" depart="285.70" departLane="best" departSpeed="max" from="229024630" to="37985780#14"/>
    <trip id="veh233" type="veh_passenger" depart="288.18" departLane="best" departSpeed="max" from="28118323#0" to="37985780#10"/>
    <trip id="veh234" type="veh_passenger" depart="289.41" departLane="best" from="28252111#1" to="28250347#2"/>
    <trip id="veh235" type="veh_passenger" depart="290.65" departLane="best" from="1042329234#0" to="1035941619#1"/>
    <trip id="veh238" type="veh_passenger" depart="294.36" departLane="best" from="28117272#2" to="1021305072#1-AddedOnRampEdge"/>
    <trip id="veh239" type="veh_passenger" depart="295.60" departLane="best" from="-28250344#1" to="-132951310#0"/>
    <trip id="veh240" type="veh_passenger" depart="296.83" departLane="best" from="28116049#3" to="28177411#3"/>
    <trip id="veh242" type="veh_passenger" depart="299.31" departLane="best" from="391085865" to="28123893#2"/>
    <trip id="veh243" type="veh_passenger" depart="300.54" departLane="best" from="-196800032#1" to="220518886#5"/>
    <trip id="veh244" type="veh_passenger" depart="301.78" departLane="best" from="1027257253#0-AddedOffRampEdge" to="158414301"/>
    <trip id="veh245" type="veh_passenger" depart="303.02" departLane="best" from="384025216" to="220518886#5"/>
    <trip id="veh246" type="veh_passenger" depart="304.26" departLane="best" from="37985780#16" to="407256937#8"/>
    <trip id="veh247" type="veh_passenger" depart="305.49" departLane="best" from="1043108985#2" to="-28125045#1"/>
    <trip id="veh248" type="veh_passenger" depart="306.73" departLane="best" departSpeed="max" from="-1190779531" to="28172407#0"/>
    <trip id="veh249" type="veh_passenger" depart="307.97" departLane="best" departSpeed="max" from="867859360" to="441998021"/>
    <trip id="veh250" type="veh_passenger" depart="309.20" departLane="best" from="28253273#2" to="406636346#13"/>
    <trip id="veh251" type="veh_passenger" depart="310.44" departLane="best" departSpeed="max" from="685838683" to="1027257248"/>
    <trip id="veh252" type="veh_passenger" depart="311.68" departLane="best" departSpeed="max" from="-1190779531" to="-745499160"/>
    <trip id="veh253" type="veh_passenger" depart="312.91" departLane="best" departSpeed="max" from="-293075487" to="301866390#2"/>
    <trip id="veh254" type="veh_passenger" depart="314.15" departLane="best" from="28176232" to="1035941619#0"/>
    <trip id="veh256" type="veh_passenger" depart="316.62" departLane="best" departSpeed="max" from="-709003828" to="28250349"/>
    <trip id="veh258" type="veh_passenger" depart="319.10" departLane="best" from="28252103#2" to="-132951304#1"/>
    <trip id="veh259" type="veh_passenger" depart="320.33" departLane="best" from="176674737#1" to="301866390#2"/>
    <trip id="veh260" type="veh_passenger" depart="321.57" departLane="best" from="722356360#0" to="229024626"/>
    <trip id="veh261" type="veh_passenger" depart="322.81" departLane="best" departSpeed="max" from="301866711#0" to="28124551#0"/>
    <trip id="veh262" type="veh_passenger" depart="324.04" departLane="best" from="1042329236#0" to="28253276#2"/>