<?xml version="1.0" encoding="UTF-8"?>

<!-- generated on 2025-04-21 22:21:58 by Eclipse SUMO netconvert Version 1.22.0
<netconvertConfiguration xmlns:xsi="http://www.w3.org/2001/XMLSchema-instance" xsi:noNamespaceSchemaLocation="http://sumo.dlr.de/xsd/netconvertConfiguration.xsd">

    <input>
        <type-files value="${SUMO_HOME}\data\typemap\osmNetconvert.typ.xml"/>
        <osm-files value="osm_bbox.osm.xml.gz"/>
    </input>

    <output>
        <output-file value="osm.net.xml.gz"/>
        <output.street-names value="true"/>
        <output.original-names value="true"/>
    </output>

    <projection>
        <proj.utm value="true"/>
    </projection>

    <processing>
        <geometry.remove value="true"/>
        <roundabouts.guess value="true"/>
    </processing>

    <tls_building>
        <tls.discard-simple value="true"/>
        <tls.join value="true"/>
        <tls.guess-signals value="true"/>
        <tls.default-type value="actuated"/>
    </tls_building>

    <ramp_guessing>
        <ramps.guess value="true"/>
    </ramp_guessing>

    <junctions>
        <junctions.join value="true"/>
        <junctions.corner-detail value="5"/>
    </junctions>

</netconvertConfiguration>
-->

<net version="1.20" junctionCornerDetail="5" limitTurnSpeed="5.50" xmlns:xsi="http://www.w3.org/2001/XMLSchema-instance" xsi:noNamespaceSchemaLocation="http://sumo.dlr.de/xsd/net_file.xsd">

    <location netOffset="-409054.14,-2046117.84" convBoundary="0.00,0.00,1302.97,799.29" origBoundary="-69.861561,18.503614,-69.849237,18.510810" projParameter="+proj=utm +zone=19 +ellps=WGS84 +datum=WGS84 +units=m +no_defs"/>

    <type id="highway.footway" priority="1" numLanes="1" speed="2.78" allow="pedestrian" oneway="1" width="2.00"/>
    <type id="highway.pedestrian" priority="1" numLanes="1" speed="2.78" allow="pedestrian" oneway="1" width="2.00"/>
    <type id="highway.primary" priority="12" numLanes="2" speed="27.78" disallow="tram rail_urban rail rail_electric rail_fast ship container cable_car subway aircraft wheelchair scooter drone" oneway="0"/>
    <type id="highway.primary_link" priority="7" numLanes="1" speed="22.22" disallow="tram rail_urban rail rail_electric rail_fast ship container cable_car subway aircraft wheelchair scooter drone" oneway="0"/>
    <type id="highway.residential" priority="3" numLanes="1" speed="13.89" disallow="tram rail_urban rail rail_electric rail_fast ship container cable_car subway aircraft wheelchair scooter drone" oneway="0"/>
    <type id="highway.secondary" priority="11" numLanes="1" speed="27.78" disallow="tram rail_urban rail rail_electric rail_fast ship container cable_car subway aircraft wheelchair scooter drone" oneway="0"/>
    <type id="highway.service" priority="1" numLanes="1" speed="5.56" allow="pedestrian delivery bicycle" oneway="0"/>
    <type id="highway.tertiary" priority="10" numLanes="1" speed="22.22" disallow="tram rail_urban rail rail_electric rail_fast ship container cable_car subway aircraft wheelchair scooter drone" oneway="0"/>
    <type id="railway.subway" priority="18" numLanes="1" speed="27.78" allow="subway" oneway="1"/>

    <edge id=":11072163842_0" function="internal">
        <lane id=":11072163842_0_0" index="0" allow="pedestrian delivery bicycle" speed="5.02" length="5.02" shape="667.96,207.14 666.83,206.36 665.72,206.13 664.64,206.46 663.58,207.34"/>
    </edge>
    <edge id=":11072163842_1" function="internal">
        <lane id=":11072163842_1_0" index="0" allow="pedestrian delivery bicycle" speed="6.91" length="10.16" shape="667.96,207.14 666.19,204.97 665.52,202.76 665.94,200.50 667.45,198.21"/>
    </edge>
    <edge id=":11072163842_2" function="internal">
        <lane id=":11072163842_2_0" index="0" allow="pedestrian delivery bicycle" speed="3.65" length="4.67" shape="667.96,207.14 667.62,205.74 667.88,204.88 668.71,204.57 670.14,204.80"/>
    </edge>
    <edge id=":11072163842_3" function="internal">
        <lane id=":11072163842_3_0" index="0" allow="pedestrian delivery bicycle" speed="5.11" length="5.07" shape="669.84,200.34 669.09,201.47 668.89,202.60 669.24,203.71 670.14,204.80"/>
    </edge>
    <edge id=":11072163842_4" function="internal">
        <lane id=":11072163842_4_0" index="0" disallow="tram rail_urban rail rail_electric rail_fast ship container cable_car subway aircraft wheelchair scooter drone" speed="13.89" length="9.40" shape="669.84,200.34 663.58,207.34"/>
    </edge>
    <edge id=":11072163842_5" function="internal">
        <lane id=":11072163842_5_0" index="0" disallow="tram rail_urban rail rail_electric rail_fast ship container cable_car subway aircraft wheelchair scooter drone" speed="13.89" length="9.39" shape="661.20,205.21 667.45,198.21"/>
    </edge>
    <edge id=":11072163842_6" function="internal">
        <lane id=":11072163842_6_0" index="0" allow="pedestrian delivery bicycle" speed="6.85" length="3.27" shape="661.20,205.21 663.35,203.40 663.79,203.27"/>
    </edge>
    <edge id=":11072163842_7" function="internal">
        <lane id=":11072163842_7_0" index="0" allow="pedestrian delivery bicycle" speed="6.85" length="6.98" shape="663.79,203.27 665.56,202.73 667.82,203.19 670.14,204.80"/>
    </edge>
    <edge id=":11077922808_0" function="internal">
        <lane id=":11077922808_0_0" index="0" allow="pedestrian delivery bicycle" speed="3.65" length="4.67" shape="866.52,536.96 865.11,537.30 864.25,537.05 863.94,536.21 864.17,534.79"/>
    </edge>
    <edge id=":11077922809_0" function="internal">
        <lane id=":11077922809_0_0" index="0" allow="pedestrian delivery bicycle" speed="5.07" length="5.03" shape="898.29,507.24 897.16,506.48 896.05,506.27 894.95,506.60 893.88,507.48"/>
    </edge>
    <edge id=":11077922809_1" function="internal">
        <lane id=":11077922809_1_0" index="0" disallow="tram rail_urban rail rail_electric rail_fast ship container cable_car subway aircraft wheelchair scooter drone" speed="27.78" length="9.37" shape="898.29,507.24 891.36,500.92"/>
        <lane id=":11077922809_1_1" index="1" disallow="tram rail_urban rail rail_electric rail_fast ship container cable_car subway aircraft wheelchair scooter drone" speed="27.78" length="9.37" shape="900.44,504.86 893.52,498.56"/>
    </edge>
    <edge id=":11077922809_3" function="internal">
        <lane id=":11077922809_3_0" index="0" allow="pedestrian delivery bicycle" speed="5.04" length="5.00" shape="891.53,505.30 892.31,504.17 892.54,503.07 892.22,501.98 891.36,500.92"/>
    </edge>
    <edge id=":11077922809_4" function="internal">
        <lane id=":11077922809_4_0" index="0" allow="pedestrian delivery bicycle" speed="3.65" length="4.67" shape="891.53,505.30 892.93,504.96 893.79,505.21 894.10,506.05 893.88,507.48"/>
    </edge>
    <edge id=":11647338339_0" function="internal">
        <lane id=":11647338339_0_0" index="0" disallow="tram rail_urban rail rail_electric rail_fast ship container cable_car subway aircraft wheelchair scooter drone" speed="6.43" length="9.03" shape="242.96,101.89 245.00,103.31 246.99,103.72 248.92,103.11 250.81,101.49"/>
    </edge>
    <edge id=":11647338339_1" function="internal">
        <lane id=":11647338339_1_0" index="0" disallow="tram rail_urban rail rail_electric rail_fast ship container cable_car subway aircraft wheelchair scooter drone" speed="3.65" length="1.44" shape="242.96,101.89 243.29,103.29"/>
    </edge>
    <edge id=":11647338339_4" function="internal">
        <lane id=":11647338339_4_0" index="0" disallow="tram rail_urban rail rail_electric rail_fast ship container cable_car subway aircraft wheelchair scooter drone" speed="3.65" length="3.23" shape="243.29,103.29 243.04,104.15 242.20,104.46 240.77,104.23"/>
    </edge>
    <edge id=":11647338339_2" function="internal">
        <lane id=":11647338339_2_0" index="0" disallow="tram rail_urban rail rail_electric rail_fast ship container cable_car subway aircraft wheelchair scooter drone" speed="6.75" length="9.29" shape="241.54,112.46 242.80,110.35 243.09,108.27 242.42,106.23 240.77,104.23"/>
    </edge>
    <edge id=":11647338339_3" function="internal">
        <lane id=":11647338339_3_0" index="0" disallow="tram rail_urban rail rail_electric rail_fast ship container cable_car subway aircraft wheelchair scooter drone" speed="13.89" length="14.36" shape="241.54,112.46 250.81,101.49"/>
    </edge>
    <edge id=":11664738274_0" function="internal">
        <lane id=":11664738274_0_0" index="0" allow="pedestrian delivery bicycle" speed="3.65" length="4.67" shape="366.33,178.36 364.93,178.71 364.07,178.46 363.75,177.63 363.97,176.20"/>
    </edge>
    <edge id=":11769233737_0" function="internal">
        <lane id=":11769233737_0_0" index="0" disallow="tram rail_urban rail rail_electric rail_fast ship container cable_car subway aircraft wheelchair scooter drone" speed="3.65" length="4.67" shape="1083.91,64.33 1085.30,63.94 1086.17,64.16 1086.51,64.99 1086.33,66.42"/>
    </edge>
    <edge id=":11769233738_0" function="internal">
        <lane id=":11769233738_0_0" index="0" disallow="tram rail_urban rail rail_electric rail_fast ship container cable_car subway aircraft wheelchair scooter drone" speed="13.89" length="14.40" shape="1062.06,103.10 1051.24,93.60"/>
    </edge>
    <edge id=":11769233738_1" function="internal">
        <lane id=":11769233738_1_0" index="0" disallow="tram rail_urban rail rail_electric rail_fast ship container cable_car subway aircraft wheelchair scooter drone" speed="8.03" length="4.05" shape="1062.06,103.10 1059.54,100.15 1059.49,99.98"/>
    </edge>
    <edge id=":11769233738_2" function="internal">
        <lane id=":11769233738_2_0" index="0" disallow="tram rail_urban rail rail_electric rail_fast ship container cable_car subway aircraft wheelchair scooter drone" speed="3.65" length="1.44" shape="1062.06,103.10 1061.69,101.70"/>
    </edge>
    <edge id=":11769233738_9" function="internal">
        <lane id=":11769233738_9_0" index="0" disallow="tram rail_urban rail rail_electric rail_fast ship container cable_car subway aircraft wheelchair scooter drone" speed="8.03" length="10.15" shape="1059.49,99.98 1058.56,97.09 1059.13,93.92 1061.23,90.64"/>
    </edge>
    <edge id=":11769233738_10" function="internal">
        <lane id=":11769233738_10_0" index="0" disallow="tram rail_urban rail rail_electric rail_fast ship container cable_car subway aircraft wheelchair scooter drone" speed="3.65" length="3.23" shape="1061.69,101.70 1061.92,100.84 1062.74,100.50 1064.17,100.69"/>
    </edge>
    <edge id=":11769233738_3" function="internal">
        <lane id=":11769233738_3_0" index="0" disallow="tram rail_urban rail rail_electric rail_fast ship container cable_car subway aircraft wheelchair scooter drone" speed="6.54" length="9.08" shape="1063.66,92.73 1062.31,94.83 1061.95,96.86 1062.57,98.81 1064.17,100.69"/>
    </edge>
    <edge id=":11769233738_4" function="internal">
        <lane id=":11769233738_4_0" index="0" disallow="tram rail_urban rail rail_electric rail_fast ship container cable_car subway aircraft wheelchair scooter drone" speed="7.99" length="14.23" shape="1063.66,92.73 1060.72,95.30 1057.67,96.30 1054.51,95.73 1051.24,93.60"/>
    </edge>
    <edge id=":11769233738_5" function="internal">
        <lane id=":11769233738_5_0" index="0" disallow="tram rail_urban rail rail_electric rail_fast ship container cable_car subway aircraft wheelchair scooter drone" speed="3.65" length="4.67" shape="1063.66,92.73 1062.27,93.12 1061.40,92.90 1061.06,92.07 1061.23,90.64"/>
    </edge>
    <edge id=":11769233738_6" function="internal">
        <lane id=":11769233738_6_0" index="0" disallow="tram rail_urban rail rail_electric rail_fast ship container cable_car subway aircraft wheelchair scooter drone" speed="6.49" length="9.03" shape="1053.35,91.19 1055.42,92.55 1057.43,92.91 1059.37,92.27 1061.23,90.64"/>
    </edge>
    <edge id=":11769233738_7" function="internal">
        <lane id=":11769233738_7_0" index="0" disallow="tram rail_urban rail rail_electric rail_fast ship container cable_car subway aircraft wheelchair scooter drone" speed="13.89" length="14.40" shape="1053.35,91.19 1064.17,100.69"/>
    </edge>
    <edge id=":11769233738_8" function="internal">
        <lane id=":11769233738_8_0" index="0" disallow="tram rail_urban rail rail_electric rail_fast ship container cable_car subway aircraft wheelchair scooter drone" speed="3.65" length="1.44" shape="1053.35,91.19 1053.72,92.59"/>
    </edge>
    <edge id=":11769233738_11" function="internal">
        <lane id=":11769233738_11_0" index="0" disallow="tram rail_urban rail rail_electric rail_fast ship container cable_car subway aircraft wheelchair scooter drone" speed="3.65" length="3.23" shape="1053.72,92.59 1053.50,93.45 1052.67,93.79 1051.24,93.60"/>
    </edge>
    <edge id=":11825072025_0" function="internal">
        <lane id=":11825072025_0_0" index="0" disallow="tram rail_urban rail rail_electric rail_fast ship container cable_car subway aircraft wheelchair scooter drone" speed="3.65" length="4.67" shape="355.29,599.07 355.99,597.81 356.76,597.35 357.59,597.69 358.48,598.82"/>
    </edge>
    <edge id=":11825072026_0" function="internal">
        <lane id=":11825072026_0_0" index="0" disallow="tram rail_urban rail rail_electric rail_fast ship container cable_car subway aircraft wheelchair scooter drone" speed="3.65" length="4.67" shape="315.82,604.81 315.16,606.09 314.41,606.57 313.57,606.26 312.64,605.15"/>
    </edge>
    <edge id=":11825086206_0" function="internal">
        <lane id=":11825086206_0_0" index="0" disallow="tram rail_urban rail rail_electric rail_fast ship container cable_car subway aircraft wheelchair scooter drone" speed="3.65" length="4.67" shape="954.54,8.74 954.17,7.35 954.40,6.48 955.22,6.15 956.65,6.34"/>
    </edge>
    <edge id=":11840406087_0" function="internal">
        <lane id=":11840406087_0_0" index="0" allow="pedestrian delivery bicycle" speed="3.65" length="4.67" shape="360.79,225.78 362.18,225.41 363.04,225.64 363.38,226.46 363.19,227.89"/>
    </edge>
    <edge id=":11840406088_0" function="internal">
        <lane id=":11840406088_0_0" index="0" allow="pedestrian delivery bicycle" speed="4.99" length="5.06" shape="349.90,311.33 351.04,312.14 352.14,312.38 353.23,312.04 354.28,311.13"/>
        <lane id=":11840406088_0_1" index="1" allow="pedestrian delivery bicycle" speed="6.03" length="7.89" shape="349.90,311.33 352.06,313.10 353.91,314.01 355.45,314.05 356.70,313.23"/>
    </edge>
    <edge id=":11840406088_2" function="internal">
        <lane id=":11840406088_2_0" index="0" allow="pedestrian delivery bicycle" speed="3.65" length="4.67" shape="349.90,311.33 350.22,312.74 349.95,313.60 349.11,313.90 347.69,313.65"/>
    </edge>
    <edge id=":11840406088_3" function="internal">
        <lane id=":11840406088_3_0" index="0" allow="pedestrian delivery bicycle" speed="6.26" length="7.99" shape="350.43,320.44 351.00,319.15 350.74,317.60 349.63,315.76 347.69,313.65"/>
    </edge>
    <edge id=":11840406088_4" function="internal">
        <lane id=":11840406088_4_0" index="0" disallow="tram rail_urban rail rail_electric rail_fast ship container cable_car subway aircraft wheelchair scooter drone" speed="27.78" length="9.55" shape="350.43,320.44 356.70,313.23"/>
        <lane id=":11840406088_4_1" index="1" disallow="tram rail_urban rail rail_electric rail_fast ship container cable_car subway aircraft wheelchair scooter drone" speed="27.78" length="9.55" shape="352.84,322.54 359.11,315.33"/>
        <lane id=":11840406088_4_2" index="2" disallow="tram rail_urban rail rail_electric rail_fast ship container cable_car subway aircraft wheelchair scooter drone" speed="27.78" length="9.55" shape="355.26,324.64 361.53,317.43"/>
    </edge>
    <edge id=":11840406089_0" function="internal">
        <lane id=":11840406089_0_0" index="0" allow="pedestrian delivery bicycle" speed="5.56" length="9.28" shape="317.17,284.57 310.37,278.26"/>
    </edge>
    <edge id=":11840406089_1" function="internal">
        <lane id=":11840406089_1_0" index="0" allow="pedestrian delivery bicycle" speed="5.56" length="10.10" shape="317.17,284.57 315.49,282.43 314.88,280.22 315.35,277.96 316.89,275.63"/>
    </edge>
    <edge id=":11840406089_2" function="internal">
        <lane id=":11840406089_2_0" index="0" allow="pedestrian delivery bicycle" speed="3.65" length="4.67" shape="317.17,284.57 316.85,283.16 317.11,282.30 317.95,282.00 319.37,282.25"/>
    </edge>
    <edge id=":11840406089_3" function="internal">
        <lane id=":11840406089_3_0" index="0" allow="pedestrian delivery bicycle" speed="5.14" length="5.09" shape="319.29,277.75 318.50,278.93 318.25,280.08 318.54,281.18 319.37,282.25"/>
    </edge>
    <edge id=":11840406089_4" function="internal">
        <lane id=":11840406089_4_0" index="0" allow="pedestrian delivery bicycle" speed="5.56" length="10.23" shape="319.29,277.75 317.16,279.57 314.96,280.26 312.69,279.83 310.37,278.26"/>
    </edge>
    <edge id=":11840406089_5" function="internal">
        <lane id=":11840406089_5_0" index="0" allow="pedestrian delivery bicycle" speed="3.65" length="4.67" shape="319.29,277.75 317.90,278.12 317.03,277.89 316.70,277.06 316.89,275.63"/>
    </edge>
    <edge id=":11840406089_6" function="internal">
        <lane id=":11840406089_6_0" index="0" allow="pedestrian delivery bicycle" speed="5.03" length="5.02" shape="312.51,275.88 313.65,276.65 314.76,276.87 315.84,276.53 316.89,275.63"/>
    </edge>
    <edge id=":11840406089_7" function="internal">
        <lane id=":11840406089_7_0" index="0" allow="pedestrian delivery bicycle" speed="5.56" length="9.36" shape="312.51,275.88 319.37,282.25"/>
    </edge>
    <edge id=":11840406089_8" function="internal">
        <lane id=":11840406089_8_0" index="0" allow="pedestrian delivery bicycle" speed="3.65" length="4.67" shape="312.51,275.88 312.87,277.28 312.63,278.14 311.79,278.47 310.37,278.26"/>
    </edge>
    <edge id=":11840406090_0" function="internal">
        <lane id=":11840406090_0_0" index="0" allow="pedestrian delivery bicycle" speed="3.65" length="4.67" shape="200.70,179.10 200.35,177.70 200.59,176.84 201.42,176.52 202.85,176.73"/>
    </edge>
    <edge id=":11840406091_0" function="internal">
        <lane id=":11840406091_0_0" index="0" allow="pedestrian delivery bicycle" speed="3.65" length="4.67" shape="181.04,360.72 179.60,360.76 178.81,360.33 178.68,359.45 179.20,358.10"/>
    </edge>
    <edge id=":11840406096_0" function="internal">
        <lane id=":11840406096_0_0" index="0" allow="pedestrian delivery bicycle" speed="5.63" length="5.70" shape="311.79,359.03 313.35,359.79 314.74,360.03 315.94,359.74 316.97,358.92"/>
    </edge>
    <edge id=":11840406096_1" function="internal">
        <lane id=":11840406096_1_0" index="0" allow="pedestrian delivery bicycle" speed="3.65" length="4.67" shape="311.79,359.03 312.38,360.34 312.30,361.23 311.54,361.70 310.10,361.75"/>
    </edge>
    <edge id=":11840406096_2" function="internal">
        <lane id=":11840406096_2_0" index="0" allow="pedestrian delivery bicycle" speed="4.89" length="5.20" shape="310.75,366.08 311.54,364.85 311.69,363.72 311.21,362.69 310.10,361.75"/>
    </edge>
    <edge id=":11840406096_3" function="internal">
        <lane id=":11840406096_3_0" index="0" disallow="tram rail_urban rail rail_electric rail_fast ship container cable_car subway aircraft wheelchair scooter drone" speed="27.78" length="9.48" shape="310.75,366.08 316.97,358.92"/>
        <lane id=":11840406096_3_1" index="1" disallow="tram rail_urban rail rail_electric rail_fast ship container cable_car subway aircraft wheelchair scooter drone" speed="27.78" length="9.48" shape="313.16,368.18 319.39,361.02"/>
        <lane id=":11840406096_3_2" index="2" disallow="tram rail_urban rail rail_electric rail_fast ship container cable_car subway aircraft wheelchair scooter drone" speed="27.78" length="9.48" shape="315.58,370.28 321.80,363.12"/>
    </edge>
    <edge id=":11840406097_0" function="internal">
        <lane id=":11840406097_0_0" index="0" allow="pedestrian delivery bicycle" speed="3.65" length="4.67" shape="368.95,477.25 369.28,478.65 369.03,479.51 368.20,479.83 366.77,479.60"/>
    </edge>
    <edge id=":11840406098_0" function="internal">
        <lane id=":11840406098_0_0" index="0" allow="pedestrian delivery bicycle" speed="4.98" length="5.07" shape="298.70,416.62 297.55,415.83 296.44,415.61 295.36,415.98 294.33,416.92"/>
    </edge>
    <edge id=":11840406098_1" function="internal">
        <lane id=":11840406098_1_0" index="0" allow="pedestrian delivery bicycle" speed="3.65" length="4.67" shape="298.70,416.62 298.37,415.22 298.62,414.36 299.45,414.05 300.88,414.27"/>
    </edge>
    <edge id=":11840406098_2" function="internal">
        <lane id=":11840406098_2_0" index="0" allow="pedestrian delivery bicycle" speed="5.23" length="5.23" shape="300.31,409.66 299.63,410.82 299.50,411.97 299.91,413.13 300.88,414.27"/>
    </edge>
    <edge id=":11840406098_3" function="internal">
        <lane id=":11840406098_3_0" index="0" disallow="tram rail_urban rail rail_electric rail_fast ship container cable_car subway aircraft wheelchair scooter drone" speed="27.78" length="9.41" shape="300.31,409.66 294.33,416.92"/>
        <lane id=":11840406098_3_1" index="1" disallow="tram rail_urban rail rail_electric rail_fast ship container cable_car subway aircraft wheelchair scooter drone" speed="27.78" length="9.41" shape="297.84,407.62 291.86,414.88"/>
        <lane id=":11840406098_3_2" index="2" disallow="tram rail_urban rail rail_electric rail_fast ship container cable_car subway aircraft wheelchair scooter drone" speed="27.78" length="9.41" shape="295.37,405.59 289.39,412.85"/>
    </edge>
    <edge id=":12378144333_0" function="internal">
        <lane id=":12378144333_0_0" index="0" allow="pedestrian delivery bicycle" speed="3.65" length="4.67" shape="1253.03,180.04 1254.32,179.38 1255.21,179.43 1255.71,180.17 1255.82,181.60"/>
    </edge>
    <edge id=":1520621925_0" function="internal">
        <lane id=":1520621925_0_0" index="0" disallow="tram rail_urban rail rail_electric rail_fast ship container cable_car subway aircraft wheelchair scooter drone" speed="3.65" length="4.67" shape="1194.88,22.79 1195.49,21.48 1196.22,20.97 1197.07,21.24 1198.04,22.30"/>
    </edge>
    <edge id=":1520621927_0" function="internal">
        <lane id=":1520621927_0_0" index="0" disallow="tram rail_urban rail rail_electric rail_fast ship container cable_car subway aircraft wheelchair scooter drone" speed="6.66" length="9.26" shape="769.96,95.99 767.76,94.63 765.67,94.26 763.68,94.87 761.79,96.45"/>
    </edge>
    <edge id=":1520621927_1" function="internal">
        <lane id=":1520621927_1_0" index="0" disallow="tram rail_urban rail rail_electric rail_fast ship container cable_car subway aircraft wheelchair scooter drone" speed="7.91" length="14.39" shape="769.96,95.99 767.28,93.06 766.23,90.01 766.83,86.84 769.05,83.55"/>
    </edge>
    <edge id=":1520621927_2" function="internal">
        <lane id=":1520621927_2_0" index="0" disallow="tram rail_urban rail rail_electric rail_fast ship container cable_car subway aircraft wheelchair scooter drone" speed="3.65" length="4.67" shape="769.96,95.99 769.54,94.61 769.74,93.74 770.55,93.37 771.99,93.52"/>
    </edge>
    <edge id=":1520621927_3" function="internal">
        <lane id=":1520621927_3_0" index="0" disallow="tram rail_urban rail rail_electric rail_fast ship container cable_car subway aircraft wheelchair scooter drone" speed="6.40" length="9.04" shape="771.42,85.71 770.02,87.77 769.65,89.76 770.31,91.68 771.99,93.52"/>
    </edge>
    <edge id=":1520621927_4" function="internal">
        <lane id=":1520621927_4_0" index="0" disallow="tram rail_urban rail rail_electric rail_fast ship container cable_car subway aircraft wheelchair scooter drone" speed="13.89" length="14.43" shape="771.42,85.71 761.79,96.45"/>
    </edge>
    <edge id=":1520621927_5" function="internal">
        <lane id=":1520621927_5_0" index="0" disallow="tram rail_urban rail rail_electric rail_fast ship container cable_car subway aircraft wheelchair scooter drone" speed="3.65" length="1.44" shape="771.42,85.71 770.02,86.06"/>
    </edge>
    <edge id=":1520621927_9" function="internal">
        <lane id=":1520621927_9_0" index="0" disallow="tram rail_urban rail rail_electric rail_fast ship container cable_car subway aircraft wheelchair scooter drone" speed="3.65" length="3.23" shape="770.02,86.06 769.16,85.81 768.84,84.98 769.05,83.55"/>
    </edge>
    <edge id=":1520621927_6" function="internal">
        <lane id=":1520621927_6_0" index="0" disallow="tram rail_urban rail rail_electric rail_fast ship container cable_car subway aircraft wheelchair scooter drone" speed="13.89" length="14.48" shape="759.39,94.34 769.05,83.55"/>
    </edge>
    <edge id=":1520621927_7" function="internal">
        <lane id=":1520621927_7_0" index="0" disallow="tram rail_urban rail rail_electric rail_fast ship container cable_car subway aircraft wheelchair scooter drone" speed="8.13" length="4.06" shape="759.39,94.34 762.32,91.86 762.53,91.79"/>
    </edge>
    <edge id=":1520621927_8" function="internal">
        <lane id=":1520621927_8_0" index="0" disallow="tram rail_urban rail rail_electric rail_fast ship container cable_car subway aircraft wheelchair scooter drone" speed="3.65" length="1.44" shape="759.39,94.34 760.78,93.97"/>
    </edge>
    <edge id=":1520621927_10" function="internal">
        <lane id=":1520621927_10_0" index="0" disallow="tram rail_urban rail rail_electric rail_fast ship container cable_car subway aircraft wheelchair scooter drone" speed="8.13" length="10.23" shape="762.53,91.79 765.39,90.89 768.62,91.45 771.99,93.52"/>
    </edge>
    <edge id=":1520621927_11" function="internal">
        <lane id=":1520621927_11_0" index="0" disallow="tram rail_urban rail rail_electric rail_fast ship container cable_car subway aircraft wheelchair scooter drone" speed="3.65" length="3.23" shape="760.78,93.97 761.65,94.19 761.98,95.02 761.79,96.45"/>
    </edge>
    <edge id=":1520621948_0" function="internal">
        <lane id=":1520621948_0_0" index="0" disallow="tram rail_urban rail rail_electric rail_fast ship container cable_car subway aircraft wheelchair scooter drone" speed="6.46" length="9.03" shape="632.82,241.66 631.44,243.72 631.07,245.72 631.70,247.65 633.34,249.52"/>
    </edge>
    <edge id=":1520621948_1" function="internal">
        <lane id=":1520621948_1_0" index="0" disallow="tram rail_urban rail rail_electric rail_fast ship container cable_car subway aircraft wheelchair scooter drone" speed="3.65" length="4.67" shape="632.82,241.66 631.42,242.02 630.56,241.78 630.23,240.95 630.44,239.52"/>
    </edge>
    <edge id=":1520621948_2" function="internal">
        <lane id=":1520621948_2_0" index="0" disallow="tram rail_urban rail rail_electric rail_fast ship container cable_car subway aircraft wheelchair scooter drone" speed="6.55" length="9.11" shape="622.45,240.06 624.52,241.41 626.54,241.77 628.51,241.14 630.44,239.52"/>
    </edge>
    <edge id=":1520621948_3" function="internal">
        <lane id=":1520621948_3_0" index="0" disallow="tram rail_urban rail rail_electric rail_fast ship container cable_car subway aircraft wheelchair scooter drone" speed="27.78" length="14.45" shape="622.45,240.06 633.34,249.52"/>
        <lane id=":1520621948_3_1" index="1" disallow="tram rail_urban rail rail_electric rail_fast ship container cable_car subway aircraft wheelchair scooter drone" speed="27.78" length="14.45" shape="620.33,242.46 631.26,251.95"/>
    </edge>
    <edge id=":1520634040_0" function="internal">
        <lane id=":1520634040_0_0" index="0" allow="pedestrian delivery bicycle" speed="9.72" length="0.27" shape="1254.32,123.16 1254.25,123.14 1254.20,123.12 1254.15,123.11 1254.07,123.09"/>
    </edge>
    <edge id=":1520634040_1" function="internal">
        <lane id=":1520634040_1_0" index="0" disallow="tram rail_urban rail rail_electric rail_fast ship container cable_car subway aircraft wheelchair scooter drone" speed="3.65" length="2.34" shape="1254.32,123.16 1253.49,121.99 1253.40,121.10"/>
    </edge>
    <edge id=":1520634040_3" function="internal">
        <lane id=":1520634040_3_0" index="0" disallow="tram rail_urban rail rail_electric rail_fast ship container cable_car subway aircraft wheelchair scooter drone" speed="3.65" length="2.34" shape="1253.40,121.10 1254.06,120.49 1255.46,120.17"/>
    </edge>
    <edge id=":1520634040_2" function="internal">
        <lane id=":1520634040_2_0" index="0" allow="pedestrian delivery bicycle" speed="9.72" length="0.80" shape="1254.70,119.95 1254.93,120.00 1255.09,120.04 1255.24,120.09 1255.46,120.17"/>
    </edge>
    <edge id=":1520634043_0" function="internal">
        <lane id=":1520634043_0_0" index="0" disallow="tram rail_urban rail rail_electric rail_fast ship container cable_car subway aircraft wheelchair scooter drone" speed="3.65" length="4.67" shape="1298.49,136.55 1299.33,137.73 1299.42,138.62 1298.76,139.22 1297.35,139.54"/>
    </edge>
    <edge id=":1520634076_0" function="internal">
        <lane id=":1520634076_0_0" index="0" disallow="tram rail_urban rail rail_electric rail_fast ship container cable_car subway aircraft wheelchair scooter drone" speed="13.89" length="14.21" shape="1261.15,650.94 1254.60,663.55"/>
    </edge>
    <edge id=":1520634076_1" function="internal">
        <lane id=":1520634076_1_0" index="0" disallow="tram rail_urban rail rail_electric rail_fast ship container cable_car subway aircraft wheelchair scooter drone" speed="8.26" length="3.76" shape="1261.15,650.94 1258.88,653.95"/>
    </edge>
    <edge id=":1520634076_2" function="internal">
        <lane id=":1520634076_2_0" index="0" disallow="tram rail_urban rail rail_electric rail_fast ship container cable_car subway aircraft wheelchair scooter drone" speed="3.65" length="1.44" shape="1261.15,650.94 1259.87,651.61"/>
    </edge>