<?xml version="1.0" encoding="UTF-8"?>

<!-- generated on 2025-04-21 22:21:59.186091 by osmWebWizard.py v1_22_0+0002-63e50f52594
<configuration>
    <net-file value="C:\Users\micha\Sumo\2025-04-21-22-21-55\osm.net.xml.gz"/>
    <output-trip-file value="C:\Users\micha\Sumo\2025-04-21-22-21-55\osm.passenger.trips.xml"/>
    <route-file value="C:\Users\micha\Sumo\2025-04-21-22-21-55\osm.passenger.rou.xml"/>
    <prefix value="veh"/>
    <trip-attributes value="departLane=&quot;best&quot;"/>
    <fringe-start-attributes value="departSpeed=&quot;max&quot;"/>
    <vehicle-class value="passenger"/>
    <lanes value="True"/>
    <fringe-factor value="20"/>
    <allow-fringe.min-length value="1000.0"/>
    <via-edge-types value="highway.motorway,highway.motorway_link,highway.trunk_link,highway.primary_link,highway.secondary_link,highway.tertiary_link"/>
    <min-distance value="300.0"/>
    <min-distance.fringe value="10.0"/>
    <remove-loops value="True"/>
    <validate value="True"/>
    <insertion-density value="12.0"/>
</configuration>
-->

<!-- generated on 2025-04-21 22:21:59 by Eclipse SUMO duarouter Version 1.22.0
<duarouterConfiguration xmlns:xsi="http://www.w3.org/2001/XMLSchema-instance" xsi:noNamespaceSchemaLocation="http://sumo.dlr.de/xsd/duarouterConfiguration.xsd">

    <input>
        <net-file value="C:\Users\micha\Sumo\2025-04-21-22-21-55\osm.net.xml.gz"/>
        <route-files value="C:\Users\micha\Sumo\2025-04-21-22-21-55\osm.passenger.trips.xml"/>
    </input>

    <output>
        <output-file value="C:\Users\micha\Sumo\2025-04-21-22-21-55\osm.passenger.trips.xml.tmp"/>
        <alternatives-output value="NUL"/>
        <write-trips value="true"/>
    </output>

    <processing>
        <remove-loops value="true"/>
    </processing>

    <time>
        <begin value="0.0"/>
        <end value="3600.0"/>
    </time>

    <report>
        <no-warnings value="true"/>
        <ignore-errors value="true"/>
        <no-step-log value="true"/>
    </report>

</duarouterConfiguration>
-->

<routes xmlns:xsi="http://www.w3.org/2001/XMLSchema-instance" xsi:noNamespaceSchemaLocation="http://sumo.dlr.de/xsd/routes_file.xsd">
    <vType id="veh_passenger" vClass="passenger"/>
    <trip id="veh0" type="veh_passenger" depart="0.00" departLane="best" from="-175464561#0" to="-138672881"/>
    <trip id="veh1" type="veh_passenger" depart="10.54" departLane="best" departSpeed="max" from="-28221389#2" to="-175927156"/>
    <trip id="veh2" type="veh_passenger" depart="21.09" departLane="best" departSpeed="max" from="28220818#0" to="-175464438#0"/>
    <trip id="veh3" type="veh_passenger" depart="31.63" departLane="best" from="229124969" to="175927181#3"/>
    <trip id="veh4" type="veh_passenger" depart="42.18" departLane="best" departSpeed="max" from="-1273396384" to="-175927137"/>
    <trip id="veh5" type="veh_passenger" depart="52.72" departLane="best" departSpeed="max" from="175927137" to="208602358#2"/>
    <trip id="veh6" type="veh_passenger" depart="63.26" departLane="best" from="-229124970#1" to="229000230#1"/>
    <trip id="veh7" type="veh_passenger" depart="73.81" departLane="best" departSpeed="max" from="-39599613" to="-175464525#0"/>
    <trip id="veh8" type="veh_passenger" depart="84.35" departLane="best" departSpeed="max" from="693847581#0" to="-28220818#0"/>
    <trip id="veh9" type="veh_passenger" depart="94.90" departLane="best" from="175464482#0" to="-175464438#0"/>
    <trip id="veh11" type="veh_passenger" depart="115.99" departLane="best" departSpeed="max" from="175464438#0" to="693847581#10"/>
    <trip id="veh12" type="veh_passenger" depart="126.53" departLane="best" departSpeed="max" from="-793071726" to="208602358#2"/>
    <trip id="veh13" type="veh_passenger" depart="137.07" departLane="best" departSpeed="max" from="28090146#0" to="28037952#3"/>
    <trip id="veh14" type="veh_passenger" depart="147.62" departLane="best" from="28220109" to="223984267#0"/>
    <trip id="veh15" type="veh_passenger" depart="158.16" departLane="best" departSpeed="max" from="208737615" to="-138672882#1"/>
    <trip id="veh16" type="veh_passenger" depart="168.71" departLane="best" departSpeed="max" from="-28218073" to="229124146#4"/>
    <trip id="veh17" type="veh_passenger" depart="179.25" departLane="best" from="-175464439#0" to="208596190#1"/>
    <trip id="veh18" type="veh_passenger" depart="189.79" departLane="best" departSpeed="max" from="175464560#0" to="1022650744"/>
    <trip id="veh19" type="veh_passenger" depart="200.34" departLane="best" departSpeed="max" from="-793071726" to="-175927156"/>
    <trip id="veh20" type="veh_passenger" depart="210.88" departLane="best" departSpeed="max" from="-28221389#2" to="414680322#18"/>
    <trip id="veh21" type="veh_passenger" depart="221.43" departLane="best" departSpeed="max" from="175927137" to="28037951#3"/>
    <trip id="veh22" type="veh_passenger" depart="231.97" departLane="best" departSpeed="max" from="-208602358#2" to="28089646#14"/>
    <trip id="veh23" type="veh_passenger" depart="242.51" departLane="best" departSpeed="max" from="-208602358#2" to="1267153526"/>
    <trip id="veh24" type="veh_passenger" depart="253.06" departLane="best" from="693847581#3" to="28089645#3"/>
    <trip id="veh25" type="veh_passenger" depart="263.60" departLane="best" departSpeed="max" from="175464458#0" to="28089646#10"/>
    <trip id="veh26" type="veh_passenger" depart="274.15" departLane="best" from="28090146#4" to="28218073"/>
    <trip id="veh27" type="veh_passenger" depart="284.69" departLane="best" departSpeed="max" from="-28218073" to="-138672881"/>
    <trip id="veh28" type="veh_passenger" depart="295.24" departLane="best" departSpeed="max" from="-368474554#1" to="-208737615"/>
    <trip id="veh29" type="veh_passenger" depart="305.78" departLane="best" departSpeed="max" from="-229000230#1" to="414680322#21"/>
    <trip id="veh30" type="veh_passenger" depart="316.32" departLane="best" departSpeed="max" from="175927137" to="1273396384"/>
    <trip id="veh31" type="veh_passenger" depart="326.87" departLane="best" departSpeed="max" from="-28221389#2" to="-208602358#0"/>
    <trip id="veh32" type="veh_passenger" depart="337.41" departLane="best" departSpeed="max" from="175464502" to="368474554#1"/>
    <trip id="veh33" type="veh_passenger" depart="347.96" departLane="best" departSpeed="max" from="1033114433" to="-175927156"/>
    <trip id="veh34" type="veh_passenger" depart="358.50" departLane="best" from="693847581#8" to="175927181#3"/>
    <trip id="veh35" type="veh_passenger" depart="369.04" departLane="best" from="-175464470" to="-138672882#1"/>
    <trip id="veh36" type="veh_passenger" depart="379.59" departLane="best" from="175464551#1" to="28089645#2"/>
    <trip id="veh37" type="veh_passenger" depart="390.13" departLane="best" departSpeed="max" from="28090146#0" to="138672627#1"/>
    <trip id="veh38" type="veh_passenger" depart="400.68" departLane="best" from="693847581#8" to="208596190#2"/>
    <trip id="veh39" type="veh_passenger" depart="411.22" departLane="best" departSpeed="max" from="693847581#0" to="28221390"/>
    <trip id="veh40" type="veh_passenger" depart="421.76" departLane="best" departSpeed="max" from="-1267153526" to="28089646#14"/>
    <trip id="veh41" type="veh_passenger" depart="432.31" departLane="best" from="175927209#1" to="208596190#2"/>
    <trip id="veh42" type="veh_passenger" depart="442.85" departLane="best" departSpeed="max" from="-28221389#2" to="28089645#3"/>
    <trip id="veh43" type="veh_passenger" depart="453.40" departLane="best" from="175464551#4" to="138672627#5"/>
    <trip id="veh44" type="veh_passenger" depart="463.94" departLane="best" departSpeed="max" from="158232703#0" to="414680322#9"/>
    <trip id="veh45" type="veh_passenger" depart="474.49" departLane="best" departSpeed="max" from="28220817#0" to="-208736112"/>
    <trip id="veh46" type="veh_passenger" depart="485.03" departLane="best" from="158232703#0-AddedOffRampEdge" to="-175464560#0"/>
    <trip id="veh49" type="veh_passenger" depart="516.66" departLane="best" departSpeed="max" from="-1267153526" to="-28220817#1"/>
    <trip id="veh50" type="veh_passenger" depart="527.21" departLane="best" departSpeed="max" from="-1273396384" to="414680322#12"/>
    <trip id="veh51" type="veh_passenger" depart="537.75" departLane="best" departSpeed="max" from="28220817#0" to="28221389#2"/>
    <trip id="veh53" type="veh_passenger" depart="558.84" departLane="best" departSpeed="max" from="28220817#0" to="414680322#4"/>
    <trip id="veh54" type="veh_passenger" depart="569.38" departLane="best" from="138672882#3" to="28089646#9"/>
    <trip id="veh55" type="veh_passenger" depart="579.93" departLane="best" from="28089646#2" to="-175464472"/>
    <trip id="veh56" type="veh_passenger" depart="590.47" departLane="best" departSpeed="max" from="158232703#0" to="208602358#2"/>
    <trip id="veh58" type="veh_passenger" depart="611.56" departLane="best" from="175464438#1" to="28089646#14"/>
    <trip id="veh59" type="veh_passenger" depart="622.10" departLane="best" departSpeed="max" from="-229000230#1" to="-28218074"/>
    <trip id="veh60" type="veh_passenger" depart="632.65" departLane="best" from="693847581#7" to="28089645#3"/>
    <trip id="veh61" type="veh_passenger" depart="643.19" departLane="best" departSpeed="max" from="138672882#0" to="175927181#3"/>
    <trip id="veh62" type="veh_passenger" depart="653.74" departLane="best" from="-175464561#8" to="-175927156"/>
    <trip id="veh63" type="veh_passenger" depart="664.28" departLane="best" departSpeed="max" from="-28218073" to="-175927156"/>
    <trip id="veh64" type="veh_passenger" depart="674.82" departLane="best" from="-138672883#4" to="28089645#3"/>
    <trip id="veh65" type="veh_passenger" depart="685.37" departLane="best" departSpeed="max" from="-28218073" to="39599613"/>
    <trip id="veh67" type="veh_passenger" depart="706.46" departLane="best" from="-229124146#1" to="-175464500#0"/>
    <trip id="veh68" type="veh_passenger" depart="717.00" departLane="best" from="414680322#6" to="223984267#0"/>
    <trip id="veh69" type="veh_passenger" depart="727.54" departLane="best" departSpeed="max" from="28090146#0" to="-175464561#8"/>
    <trip id="veh70" type="veh_passenger" depart="738.09" departLane="best" from="-175464500#1" to="138672627#5"/>
    <trip id="veh71" type="veh_passenger" depart="748.63" departLane="best" departSpeed="max" from="138672881" to="175464458#1"/>
    <trip id="veh72" type="veh_passenger" depart="759.18" departLane="best" from="229124970#2" to="28089645#3"/>
    <trip id="veh73" type="veh_passenger" depart="769.72" departLane="best" from="693847581#17" to="-175464438#1"/>
    <trip id="veh74" type="veh_passenger" depart="780.26" departLane="best" departSpeed="max" from="1033114433" to="-28220818#0"/>
    <trip id="veh75" type="veh_passenger" depart="790.81" departLane="best" from="28220109" to="-208602358#0"/>
    <trip id="veh76" type="veh_passenger" depart="801.35" departLane="best" departSpeed="max" from="-223984267#1" to="138672894"/>
    <trip id="veh77" type="veh_passenger" depart="811.90" departLane="best" departSpeed="max" from="138672881" to="-208737615"/>
    <trip id="veh78" type="veh_passenger" depart="822.44" departLane="best" departSpeed="max" from="-28220119" to="414680322#1"/>
    <trip id="veh79" type="veh_passenger" depart="832.99" departLane="best" from="138672882#3" to="28221390"/>
    <trip id="veh80" type="veh_passenger" depart="843.53" departLane="best" departSpeed="max" from="175464458#0" to="-138672882#1"/>
    <trip id="veh81" type="veh_passenger" depart="854.07" departLane="best" from="719050966" to="28221389#2"/>
    <trip id="veh82" type="veh_passenger" depart="864.62" departLane="best" departSpeed="max" from="693847581#0" to="693847581#9"/>
    <trip id="veh84" type="veh_passenger" depart="885.71" departLane="best" departSpeed="max" from="158232703#0" to="-175927156"/>
    <trip id="veh85" type="veh_passenger" depart="896.25" departLane="best" departSpeed="max" from="1033114433" to="-138672883#6"/>
    <trip id="veh86" type="veh_passenger" depart="906.79" departLane="best" departSpeed="max" from="693847581#0" to="693847581#7"/>
    <trip id="veh87" type="veh_passenger" depart="917.34" departLane="best" departSpeed="max" from="175464458#0" to="28089646#14"/>
    <trip id="veh88" type="veh_passenger" depart="927.88" departLane="best" departSpeed="max" from="-208596190#2" to="-229125073"/>
    <trip id="veh89" type="veh_passenger" depart="938.43" departLane="best" departSpeed="max" from="693847581#0" to="229000230#1"/>
    <trip id="veh90" type="veh_passenger" depart="948.97" departLane="best" from="175464439#4" to="28089646#4"/>
    <trip id="veh91" type="veh_passenger" depart="959.51" departLane="best" departSpeed="max" from="-138672627#5" to="229000230#1"/>
    <trip id="veh92" type="veh_passenger" depart="970.06" departLane="best" from="158232703#1" to="28221390"/>
    <trip id="veh93" type="veh_passenger" depart="980.60" departLane="best" from="-175464439#0" to="-175464561#0"/>
    <trip id="veh94" type="veh_passenger" depart="991.15" departLane="best" from="175464522#0" to="28089645#3"/>
    <trip id="veh95" type="veh_passenger" depart="1001.69" departLane="best" departSpeed="max" from="-28218073" to="-175464458#0"/>
    <trip id="veh96" type="veh_passenger" depart="1012.24" departLane="best" departSpeed="max" from="28220818#0" to="-208602358#0"/>
    <trip id="veh97" type="veh_passenger" depart="1022.78" departLane="best" from="175464522#0" to="28037952#3"/>
    <trip id="veh98" type="veh_passenger" depart="1033.32" departLane="best" departSpeed="max" from="175464438#0" to="414680322#17"/>
    <trip id="veh99" type="veh_passenger" depart="1043.87" departLane="best" departSpeed="max" from="-229000230#1" to="28089646#14"/>
    <trip id="veh100" type="veh_passenger" depart="1054.41" departLane="best" departSpeed="max" from="-28218073" to="1273396384"/>
    <trip id="veh101" type="veh_passenger" depart="1064.96" departLane="best" departSpeed="max" from="175927156" to="-28218074"/>
    <trip id="veh102" type="veh_passenger" depart="1075.50" departLane="best" departSpeed="max" from="-368474554#1" to="28089646#6"/>
    <trip id="veh103" type="veh_passenger" depart="1086.04" departLane="best" from="-138672883#6" to="175464438#1"/>
    <trip id="veh104" type="veh_passenger" depart="1096.59" departLane="best" from="-138672883#6" to="-175927156"/>
    <trip id="veh105" type="veh_passenger" depart="1107.13" departLane="best" departSpeed="max" from="-28221389#2" to="414680322#16"/>
    <trip id="veh107" type="veh_passenger" depart="1128.22" departLane="best" departSpeed="max" from="-793071726" to="-175464525#1"/>
    <trip id="veh108" type="veh_passenger" depart="1138.76" departLane="best" departSpeed="max" from="175464525#0" to="693847581#18"/>
    <trip id="veh109" type="veh_passenger" depart="1149.31" departLane="best" departSpeed="max" from="175927137" to="-1033114433"/>
    <trip id="veh110" type="veh_passenger" depart="1159.85" departLane="best" departSpeed="max" from="28090146#0" to="-28218074"/>
    <trip id="veh111" type="veh_passenger" depart="1170.40" departLane="best" departSpeed="max" from="175927156" to="414680322#19"/>
    <trip id="veh112" type="veh_passenger" depart="1180.94" departLane="best" departSpeed="max" from="-175927181#3" to="-175464458#0"/>
    <trip id="veh113" type="veh_passenger" depart="1191.49" departLane="best" from="-175464526#2" to="208602358#2"/>
    <trip id="veh114" type="veh_passenger" depart="1202.03" departLane="best" departSpeed="max" from="-28221389#2" to="229124970#2"/>
    <trip id="veh115" type="veh_passenger" depart="1212.57" departLane="best" departSpeed="max" from="208737615" to="-175927137"/>
    <trip id="veh116" type="veh_passenger" depart="1223.12" departLane="best" departSpeed="max" from="175464560#0" to="-208736112"/>
    <trip id="veh117" type="veh_passenger" depart="1233.66" departLane="best" departSpeed="max" from="158232703#0" to="39599613"/>
    <trip id="veh119" type="veh_passenger" depart="1254.75" departLane="best" departSpeed="max" from="138672881" to="-208737615"/>
    <trip id="veh120" type="veh_passenger" depart="1265.29" departLane="best" departSpeed="max" from="-1267153526" to="28090146#4"/>
    <trip id="veh121" type="veh_passenger" depart="1275.84" departLane="best" departSpeed="max" from="175464560#0" to="-208736112"/>
    <trip id="veh122" type="veh_passenger" depart="1286.38" departLane="best" from="28037952#1" to="208602358#2"/>
    <trip id="veh123" type="veh_passenger" depart="1296.93" departLane="best" departSpeed="max" from="138672882#0" to="-1033114433"/>
    <trip id="veh125" type="veh_passenger" depart="1318.01" departLane="best" from="-39393077#0" to="208602358#2"/>
    <trip id="veh126" type="veh_passenger" depart="1328.56" departLane="best" from="28090146#1" to="229000230#1"/>
    <trip id="veh127" type="veh_passenger" depart="1339.10" departLane="best" departSpeed="max" from="-208596190#2" to="-175464470"/>
    <trip id="veh128" type="veh_passenger" depart="1349.65" departLane="best" departSpeed="max" from="28090146#0" to="28221390"/>
    <trip id="veh129" type="veh_passenger" depart="1360.19" departLane="best" from="-28221389#1" to="-175927156"/>
    <trip id="veh130" type="veh_passenger" depart="1370.74" departLane="best" departSpeed="max" from="-28220119" to="-175464440"/>
    <trip id="veh131" type="veh_passenger" depart="1381.28" departLane="best" from="28089646#8" to="368474554#1"/>
    <trip id="veh132" type="veh_passenger" depart="1391.82" departLane="best" departSpeed="max" from="-208596190#2" to="414680322#13"/>
    <trip id="veh133" type="veh_passenger" depart="1402.37" departLane="best" departSpeed="max" from="28220817#0" to="693847581#12"/>
    <trip id="veh135" type="veh_passenger" depart="1423.46" departLane="best" departSpeed="max" from="-1273396384" to="28089646#14"/>
    <trip id="veh136" type="veh_passenger" depart="1434.00" departLane="best" from="-39393077#2" to="414680322#13"/>
    <trip id="veh137" type="veh_passenger" depart="1444.54" departLane="best" departSpeed="max" from="28090146#0" to="28221392"/>
    <trip id="veh138" type="veh_passenger" depart="1455.09" departLane="best" departSpeed="max" from="28090146#0" to="-208736112"/>
    <trip id="veh139" type="veh_passenger" depart="1465.63" departLane="best" departSpeed="max" from="28090146#0" to="-175464458#0"/>
    <trip id="veh140" type="veh_passenger" depart="1476.18" departLane="best" departSpeed="max" from="28220817#0" to="28221390"/>
    <trip id="veh141" type="veh_passenger" depart="1486.72" departLane="best" from="229125056" to="28220119"/>
    <trip id="veh142" type="veh_passenger" depart="1497.26" departLane="best" departSpeed="max" from="28090146#0" to="-175927181#2"/>
    <trip id="veh143" type="veh_passenger" depart="1507.81" departLane="best" departSpeed="max" from="-1273396384" to="-175927137"/>
    <trip id="veh144" type="veh_passenger" depart="1518.35" departLane="best" departSpeed="max" from="-368474554#1" to="28221393"/>
    <trip id="veh145" type="veh_passenger" depart="1528.90" departLane="best" departSpeed="max" from="693847581#0" to="-208737615"/>
    <trip id="veh146" type="veh_passenger" depart="1539.44" departLane="best" from="693847581#15" to="208596190#2"/>
    <trip id="veh147" type="veh_passenger" depart="1549.99" departLane="best" from="414680322#9" to="-175464458#0"/>
    <trip id="veh148" type="veh_passenger" depart="1560.53" departLane="best" departSpeed="max" from="693847581#0" to="-175464560#0"/>
    <trip id="veh149" type="veh_passenger" depart="1571.07" departLane="best" departSpeed="max" from="693847581#0" to="-208736112"/>
    <trip id="veh150" type="veh_passenger" depart="1581.62" departLane="best" from="175464551#0" to="138672627#5"/>
    <trip id="veh151" type="veh_passenger" depart="1592.16" departLane="best" from="229124970#2" to="-28220109"/>
    <trip id="veh152" type="veh_passenger" depart="1602.71" departLane="best" departSpeed="max" from="175464525#0" to="175927181#3"/>
    <trip id="veh153" type="veh_passenger" depart="1613.25" departLane="best" from="1022650744" to="223984267#0"/>
    <trip id="veh154" type="veh_passenger" depart="1623.79" departLane="best" departSpeed="max" from="-28220119" to="28089646#14"/>
    <trip id="veh155" type="veh_passenger" depart="1634.34" departLane="best" departSpeed="max" from="-1267153526" to="414680322#10"/>
    <trip id="veh156" type="veh_passenger" depart="1644.88" departLane="best" departSpeed="max" from="175464438#0" to="28089646#14"/>
    <trip id="veh157" type="veh_passenger" depart="1655.43" departLane="best" departSpeed="max" from="-630023929#1" to="-171051004#0"/>
    <trip id="veh158" type="veh_passenger" depart="1665.97" departLane="best" departSpeed="max" from="175927156" to="-28220817#1"/>
    <trip id="veh160" type="veh_passenger" depart="1687.06" departLane="best" from="229124145#0" to="-28218074"/>
    <trip id="veh162" type="veh_passenger" depart="1708.15" departLane="best" departSpeed="max" from="1033114433" to="-229125056"/>
    <trip id="veh163" type="veh_passenger" depart="1718.69" departLane="best" departSpeed="max" from="-175927181#3" to="138672625"/>
    <trip id="veh164" type="veh_passenger" depart="1729.24" departLane="best" from="630023929#0" to="28089645#3"/>
    <trip id="veh165" type="veh_passenger" depart="1739.78" departLane="best" from="328367780#1" to="28037952#0"/>
    <trip id="veh167" type="veh_passenger" depart="1760.87" departLane="best" departSpeed="max" from="-1267153526" to="-229124146#1"/>
    <trip id="veh168" type="veh_passenger" depart="1771.41" departLane="best" departSpeed="max" from="138672882#0" to="229000230#1"/>
    <trip id="veh169" type="veh_passenger" depart="1781.96" departLane="best" departSpeed="max" from="175927137" to="175464450#0"/>
    <trip id="veh170" type="veh_passenger" depart="1792.50" departLane="best" departSpeed="max" from="138672882#0" to="-175927156"/>
    <trip id="veh171" type="veh_passenger" depart="1803.04" departLane="best" departSpeed="max" from="158232703#0" to="39393077#0"/>
    <trip id="veh172" type="veh_passenger" depart="1813.59" departLane="best" from="-175464446#1" to="175927181#3"/>
    <trip id="veh173" type="veh_passenger" depart="1824.13" departLane="best" departSpeed="max" from="175464560#0" to="-28220818#0"/>
    <trip id="veh174" type="veh_passenger" depart="1834.68" departLane="best" departSpeed="max" from="28090146#0" to="28089646#5"/>
    <trip id="veh175" type="veh_passenger" depart="1845.22" departLane="best" departSpeed="max" from="-28220119" to="175464500#0"/>
    <trip id="veh177" type="veh_passenger" depart="1866.31" departLane="best" departSpeed="max" from="138672881" to="28089645#3"/>
    <trip id="veh178" type="veh_passenger" depart="1876.85" departLane="best" departSpeed="max" from="-223984267#1" to="28089646#14"/>
    <trip id="veh179" type="veh_passenger" depart="1887.40" departLane="best" departSpeed="max" from="158232703#0" to="-208602358#0"/>
    <trip id="veh180" type="veh_passenger" depart="1897.94" departLane="best" departSpeed="max" from="175927137" to="-1033114433"/>
    <trip id="veh181" type="veh_passenger" depart="1908.49" departLane="best" from="-175464526#1" to="138672627#5"/>
    <trip id="veh182" type="veh_passenger" depart="1919.03" departLane="best" departSpeed="max" from="-208602358#2" to="630023929#1"/>
    <trip id="veh183" type="veh_passenger" depart="1929.57" departLane="best" departSpeed="max" from="171051004#0" to="-138672882#1"/>
    <trip id="veh184" type="veh_passenger" depart="1940.12" departLane="best" departSpeed="max" from="-28220119" to="28221390"/>
    <trip id="veh185" type="veh_passenger" depart="1950.66" departLane="best" departSpeed="max" from="175927156" to="693847581#3"/>
    <trip id="veh186" type="veh_passenger" depart="1961.21" departLane="best" departSpeed="max" from="28220818#0" to="28037951#4"/>
    <trip id="veh187" type="veh_passenger" depart="1971.75" departLane="best" from="-229000230#0" to="175927181#2"/>
    <trip id="veh188" type="veh_passenger" depart="1982.29" departLane="best" departSpeed="max" from="28090146#0" to="208602358#2"/>
    <trip id="veh189" type="veh_passenger" depart="1992.84" departLane="best" from="28220827" to="28089646#2"/>
    <trip id="veh190" type="veh_passenger" depart="2003.38" departLane="best" departSpeed="max" from="158232703#0" to="-208736112"/>
    <trip id="veh191" type="veh_passenger" depart="2013.93" departLane="best" departSpeed="max" from="-28220119" to="28089645#3"/>
    <trip id="veh192" type="veh_passenger" depart="2024.47" departLane="best" from="28089646#2" to="175927181#3"/>
    <trip id="veh193" type="veh_passenger" depart="2035.01" departLane="best" from="-171051000" to="-229124145#2"/>
    <trip id="veh194" type="veh_passenger" depart="2045.56" departLane="best" departSpeed="max" from="-28221389#2" to="-28220817#1"/>
    <trip id="veh195" type="veh_passenger" depart="2056.10" departLane="best" from="175464439#0" to="-175464520#2"/>
    <trip id="veh196" type="veh_passenger" depart="2066.65" departLane="best" departSpeed="max" from="-28218073" to="28089646#14"/>
    <trip id="veh197" type="veh_passenger" depart="2077.19" departLane="best" departSpeed="max" from="208737615" to="-171051004#0"/>
    <trip id="veh198" type="veh_passenger" depart="2087.74" departLane="best" from="414680322#3" to="208596190#2"/>
    <trip id="veh199" type="veh_passenger" depart="2098.28" departLane="best" departSpeed="max" from="138672881" to="-175927137"/>
    <trip id="veh200" type="veh_passenger" depart="2108.82" departLane="best" departSpeed="max" from="175464502" to="28089646#14"/>
    <trip id="veh202" type="veh_passenger" depart="2129.91" departLane="best" departSpeed="max" from="-793071726" to="-1033114433"/>
    <trip id="veh203" type="veh_passenger" depart="2140.46" departLane="best" departSpeed="max" from="-630023929#1" to="28089646#6"/>
    <trip id="veh205" type="veh_passenger" depart="2161.54" departLane="best" departSpeed="max" from="138672881" to="28089646#4"/>
    <trip id="veh206" type="veh_passenger" depart="2172.09" departLane="best" from="-175464526#1" to="-229124970#0"/>
    <trip id="veh207" type="veh_passenger" depart="2182.63" departLane="best" from="229124970#1" to="-175927156"/>
    <trip id="veh208" type="veh_passenger" depart="2193.18" departLane="best" departSpeed="max" from="138672882#0" to="-138672881"/>
    <trip id="veh209" type="veh_passenger" depart="2203.72" departLane="best" departSpeed="max" from="-39599613" to="28089646#0"/>
    <trip id="veh210" type="veh_passenger" depart="2214.26" departLane="best" from="1253098680#0" to="-175464551#5"/>
    <trip id="veh211" type="veh_passenger" depart="2224.81" departLane="best" departSpeed="max" from="158232703#0" to="-175464472"/>
    <trip id="veh212" type="veh_passenger" depart="2235.35" departLane="best" from="175464551#8" to="-138672881"/>
    <trip id="veh213" type="veh_passenger" depart="2245.90" departLane="best" departSpeed="max" from="1033114433" to="223984267#0"/>
    <trip id="veh214" type="veh_passenger" depart="2256.44" departLane="best" departSpeed="max" from="-1273396384" to="28089645#3"/>
    <trip id="veh215" type="veh_passenger" depart="2266.99" departLane="best" departSpeed="max" from="-175927181#3" to="-175464439#4"/>
    <trip id="veh216" type="veh_passenger" depart="2277.53" departLane="best" from="-138672627#2" to="1267153526"/>
    <trip id="veh217" type="veh_passenger" depart="2288.07" departLane="best" departSpeed="max" from="-229000230#1" to="-28220817#1"/>
    <trip id="veh218" type="veh_passenger" depart="2298.62" departLane="best" from="28090146#1" to="1267153526"/>
    <trip id="veh219" type="veh_passenger" depart="2309.16" departLane="best" departSpeed="max" from="-28220119" to="-175464438#0"/>
    <trip id="veh220" type="veh_passenger" depart="2319.71" departLane="best" departSpeed="max" from="175927137" to="28218073"/>
    <trip id="veh221" type="veh_passenger" depart="2330.25" departLane="best" departSpeed="max" from="175927137" to="28089646#7"/>
    <trip id="veh222" type="veh_passenger" depart="2340.79" departLane="best" departSpeed="max" from="693847581#0" to="-175927137"/>
    <trip id="veh223" type="veh_passenger" depart="2351.34" departLane="best" departSpeed="max" from="-1273396384" to="-175464525#0"/>
    <trip id="veh224" type="veh_passenger" depart="2361.88" departLane="best" from="175464458#1" to="-175927156"/>
    <trip id="veh225" type="veh_passenger" depart="2372.43" departLane="best" departSpeed="max" from="208602358#0" to="28090146#3"/>
    <trip id="veh227" type="veh_passenger" depart="2393.51" departLane="best" from="175464547" to="-138672881"/>
    <trip id="veh229" type="veh_passenger" depart="2414.60" departLane="best" departSpeed="max" from="693847581#0" to="1273396384"/>
    <trip id="veh230" type="veh_passenger" depart="2425.15" departLane="best" departSpeed="max" from="208737615" to="-171051004#0"/>
    <trip id="veh231" type="veh_passenger" depart="2435.69" departLane="best" departSpeed="max" from="208602358#0" to="28089645#2"/>
    <trip id="veh232" type="veh_passenger" depart="2446.24" departLane="best" from="-175464520#0" to="28090146#5"/>
    <trip id="veh234" type="veh_passenger" depart="2467.32" departLane="best" from="-175464561#8" to="693847581#17"/>
    <trip id="veh235" type="veh_passenger" depart="2477.87" departLane="best" departSpeed="max" from="138672882#0" to="1267153526"/>
    <trip id="veh236" type="veh_passenger" depart="2488.41" departLane="best" from="171051000" to="-28220818#0"/>
    <trip id="veh238" type="veh_passenger" depart="2509.50" departLane="best" from="-175464526#0" to="630023929#1"/>
    <trip id="veh239" type="veh_passenger" depart="2520.04" departLane="best" departSpeed="max" from="175464560#0" to="28220828"/>