<?xml version="1.0" encoding="UTF-8"?>

<!-- generated on 2025-04-19 23:48:35 by Eclipse SUMO netconvert Version 1.22.0
<netconvertConfiguration xmlns:xsi="http://www.w3.org/2001/XMLSchema-instance" xsi:noNamespaceSchemaLocation="http://sumo.dlr.de/xsd/netconvertConfiguration.xsd">

    <input>
        <type-files value="${SUMO_HOME}\data\typemap\osmNetconvert.typ.xml"/>
        <osm-files value="osm_bbox.osm.xml.gz"/>
    </input>

    <output>
        <output-file value="osm.net.xml.gz"/>
        <output.street-names value="true"/>
        <output.original-names value="true"/>
    </output>

    <projection>
        <proj.utm value="true"/>
    </projection>

    <processing>
        <geometry.remove value="true"/>
        <roundabouts.guess value="true"/>
    </processing>

    <tls_building>
        <tls.discard-simple value="true"/>
        <tls.join value="true"/>
        <tls.guess-signals value="true"/>
        <tls.default-type value="actuated"/>
    </tls_building>

    <ramp_guessing>
        <ramps.guess value="true"/>
    </ramp_guessing>

    <edge_removal>
        <keep-edges.by-vclass value="passenger"/>
    </edge_removal>

    <junctions>
        <junctions.join value="true"/>
        <junctions.corner-detail value="5"/>
    </junctions>

</netconvertConfiguration>
-->

<net version="1.20" junctionCornerDetail="5" limitTurnSpeed="5.50" xmlns:xsi="http://www.w3.org/2001/XMLSchema-instance" xsi:noNamespaceSchemaLocation="http://sumo.dlr.de/xsd/net_file.xsd">

    <location netOffset="-402355.06,-2041576.07" convBoundary="0.00,0.00,2453.39,1634.89" origBoundary="-69.924826,18.462279,-69.901585,18.477058" projParameter="+proj=utm +zone=19 +ellps=WGS84 +datum=WGS84 +units=m +no_defs"/>

    <type id="highway.motorway" priority="14" numLanes="2" speed="39.44" allow="private emergency authority army vip passenger hov taxi bus coach delivery truck trailer motorcycle evehicle custom1 custom2" oneway="1"/>
    <type id="highway.motorway_link" priority="9" numLanes="1" speed="22.22" allow="private emergency authority army vip passenger hov taxi bus coach delivery truck trailer motorcycle evehicle custom1 custom2" oneway="1"/>
    <type id="highway.primary" priority="12" numLanes="2" speed="27.78" disallow="tram rail_urban rail rail_electric rail_fast ship container cable_car subway aircraft wheelchair scooter drone" oneway="0"/>
    <type id="highway.primary_link" priority="7" numLanes="1" speed="22.22" disallow="tram rail_urban rail rail_electric rail_fast ship container cable_car subway aircraft wheelchair scooter drone" oneway="0"/>
    <type id="highway.residential" priority="3" numLanes="1" speed="13.89" disallow="tram rail_urban rail rail_electric rail_fast ship container cable_car subway aircraft wheelchair scooter drone" oneway="0"/>
    <type id="highway.secondary" priority="11" numLanes="1" speed="27.78" disallow="tram rail_urban rail rail_electric rail_fast ship container cable_car subway aircraft wheelchair scooter drone" oneway="0"/>
    <type id="highway.secondary_link" priority="6" numLanes="1" speed="22.22" disallow="tram rail_urban rail rail_electric rail_fast ship container cable_car subway aircraft wheelchair scooter drone" oneway="0"/>
    <type id="highway.tertiary" priority="10" numLanes="1" speed="22.22" disallow="tram rail_urban rail rail_electric rail_fast ship container cable_car subway aircraft wheelchair scooter drone" oneway="0"/>
    <type id="highway.unclassified" priority="4" numLanes="1" speed="13.89" disallow="tram rail_urban rail rail_electric rail_fast ship container cable_car subway aircraft wheelchair scooter drone" oneway="0"/>

    <edge id=":1021305072#1-AddedOnRampNode_0" function="internal">
        <lane id=":1021305072#1-AddedOnRampNode_0_0" index="0" disallow="tram rail_urban rail rail_electric rail_fast ship container cable_car subway aircraft wheelchair scooter drone" speed="16.67" length="8.00" shape="1020.09,1503.78 1012.78,1500.55"/>
        <lane id=":1021305072#1-AddedOnRampNode_0_1" index="1" disallow="tram rail_urban rail rail_electric rail_fast ship container cable_car subway aircraft wheelchair scooter drone" speed="16.67" length="8.00" shape="1021.39,1500.86 1014.07,1497.62"/>
        <lane id=":1021305072#1-AddedOnRampNode_0_2" index="2" disallow="tram rail_urban rail rail_electric rail_fast ship container cable_car subway aircraft wheelchair scooter drone" speed="16.67" length="8.00" shape="1022.68,1497.93 1015.36,1494.69"/>
    </edge>
    <edge id=":1024989362#0-AddedOnRampNode_0" function="internal">
        <lane id=":1024989362#0-AddedOnRampNode_0_0" index="0" disallow="tram rail_urban rail rail_electric rail_fast ship container cable_car subway aircraft wheelchair scooter drone" speed="27.78" length="8.00" shape="1229.74,1385.24 1231.75,1377.49"/>
        <lane id=":1024989362#0-AddedOnRampNode_0_1" index="1" disallow="tram rail_urban rail rail_electric rail_fast ship container cable_car subway aircraft wheelchair scooter drone" speed="27.78" length="8.00" shape="1232.84,1386.04 1234.85,1378.30"/>
    </edge>
    <edge id=":1024989366-AddedOffRampNode_0" function="internal">
        <lane id=":1024989366-AddedOffRampNode_0_0" index="0" disallow="tram rail_urban rail rail_electric rail_fast ship container cable_car subway aircraft wheelchair scooter drone" speed="16.67" length="8.20" shape="1389.46,1562.86 1387.08,1563.66 1385.69,1564.94 1384.30,1566.22 1381.91,1567.02"/>
        <lane id=":1024989366-AddedOffRampNode_0_1" index="1" disallow="tram rail_urban rail rail_electric rail_fast ship container cable_car subway aircraft wheelchair scooter drone" speed="16.67" length="8.20" shape="1389.46,1562.86 1381.52,1563.84"/>
        <lane id=":1024989366-AddedOffRampNode_0_2" index="2" disallow="tram rail_urban rail rail_electric rail_fast ship container cable_car subway aircraft wheelchair scooter drone" speed="16.67" length="8.20" shape="1389.07,1559.68 1381.13,1560.66"/>
        <lane id=":1024989366-AddedOffRampNode_0_3" index="3" disallow="tram rail_urban rail rail_electric rail_fast ship container cable_car subway aircraft wheelchair scooter drone" speed="16.67" length="8.20" shape="1388.68,1556.51 1380.74,1557.49"/>
    </edge>
    <edge id=":1027257253#0-AddedOffRampNode_0" function="internal">
        <lane id=":1027257253#0-AddedOffRampNode_0_0" index="0" disallow="tram rail_urban rail rail_electric rail_fast ship container cable_car subway aircraft wheelchair scooter drone" speed="27.78" length="8.92" shape="1250.77,1362.85 1251.11,1365.70 1252.95,1367.49 1254.78,1369.27 1255.13,1372.12"/>
        <lane id=":1027257253#0-AddedOffRampNode_0_1" index="1" disallow="tram rail_urban rail rail_electric rail_fast ship container cable_car subway aircraft wheelchair scooter drone" speed="27.78" length="8.92" shape="1250.77,1362.85 1250.68,1365.37 1251.39,1367.12 1252.10,1368.87 1252.02,1371.38"/>
        <lane id=":1027257253#0-AddedOffRampNode_0_2" index="2" disallow="tram rail_urban rail rail_electric rail_fast ship container cable_car subway aircraft wheelchair scooter drone" speed="27.78" length="8.92" shape="1250.77,1362.85 1248.91,1370.64"/>
        <lane id=":1027257253#0-AddedOffRampNode_0_3" index="3" disallow="tram rail_urban rail rail_electric rail_fast ship container cable_car subway aircraft wheelchair scooter drone" speed="27.78" length="8.92" shape="1247.65,1362.11 1245.79,1369.89"/>
    </edge>
    <edge id=":1043471253-AddedOffRampNode_0" function="internal">
        <lane id=":1043471253-AddedOffRampNode_0_0" index="0" disallow="tram rail_urban rail rail_electric rail_fast ship container cable_car subway aircraft wheelchair scooter drone" speed="16.67" length="8.68" shape="263.58,873.25 260.99,872.26 258.63,873.11 256.23,874.01 253.52,873.15"/>
        <lane id=":1043471253-AddedOffRampNode_0_1" index="1" disallow="tram rail_urban rail rail_electric rail_fast ship container cable_car subway aircraft wheelchair scooter drone" speed="16.67" length="8.68" shape="263.58,873.25 261.46,872.02 259.61,871.87 257.73,871.76 255.50,870.64"/>
        <lane id=":1043471253-AddedOffRampNode_0_2" index="2" disallow="tram rail_urban rail rail_electric rail_fast ship container cable_car subway aircraft wheelchair scooter drone" speed="16.67" length="8.68" shape="263.58,873.25 257.49,868.13"/>
        <lane id=":1043471253-AddedOffRampNode_0_3" index="3" disallow="tram rail_urban rail rail_electric rail_fast ship container cable_car subway aircraft wheelchair scooter drone" speed="16.67" length="8.68" shape="265.60,870.76 259.47,865.61"/>
        <lane id=":1043471253-AddedOffRampNode_0_4" index="4" disallow="tram rail_urban rail rail_electric rail_fast ship container cable_car subway aircraft wheelchair scooter drone" speed="16.67" length="8.68" shape="267.62,868.27 261.45,863.10"/>
    </edge>
    <edge id=":11056358988_0" function="internal">
        <lane id=":11056358988_0_0" index="0" disallow="tram rail_urban rail rail_electric rail_fast ship container cable_car subway aircraft wheelchair scooter drone" speed="3.65" length="4.67" shape="2353.74,838.34 2352.70,839.34 2351.83,839.55 2351.14,838.99 2350.61,837.65"/>
    </edge>
    <edge id=":11056358990_0" function="internal">
        <lane id=":11056358990_0_0" index="0" disallow="tram rail_urban rail rail_electric rail_fast ship container cable_car subway aircraft wheelchair scooter drone" speed="6.40" length="9.04" shape="2372.46,777.47 2369.98,777.20 2368.05,777.81 2366.67,779.29 2365.84,781.64"/>
    </edge>
    <edge id=":11056358990_1" function="internal">
        <lane id=":11056358990_1_0" index="0" disallow="tram rail_urban rail rail_electric rail_fast ship container cable_car subway aircraft wheelchair scooter drone" speed="27.78" length="14.41" shape="2372.46,777.47 2358.50,773.91"/>
        <lane id=":11056358990_1_1" index="1" disallow="tram rail_urban rail rail_electric rail_fast ship container cable_car subway aircraft wheelchair scooter drone" speed="27.78" length="14.41" shape="2373.25,774.36 2359.29,770.81"/>
    </edge>
    <edge id=":11056358990_3" function="internal">
        <lane id=":11056358990_3_0" index="0" disallow="tram rail_urban rail rail_electric rail_fast ship container cable_car subway aircraft wheelchair scooter drone" speed="6.71" length="9.30" shape="2362.70,781.01 2362.87,778.42 2362.22,776.37 2360.77,774.87 2358.50,773.91"/>
    </edge>
    <edge id=":11056358990_4" function="internal">
        <lane id=":11056358990_4_0" index="0" disallow="tram rail_urban rail rail_electric rail_fast ship container cable_car subway aircraft wheelchair scooter drone" speed="3.65" length="4.67" shape="2362.70,781.01 2363.72,779.99 2364.58,779.76 2365.29,780.31 2365.84,781.64"/>
    </edge>
    <edge id=":11064244009_0" function="internal">
        <lane id=":11064244009_0_0" index="0" disallow="tram rail_urban rail rail_electric rail_fast ship container cable_car subway aircraft wheelchair scooter drone" speed="3.65" length="4.67" shape="974.76,1195.72 974.41,1194.32 974.65,1193.46 975.49,1193.14 976.92,1193.36"/>
    </edge>
    <edge id=":11064244011_0" function="internal">
        <lane id=":11064244011_0_0" index="0" disallow="tram rail_urban rail rail_electric rail_fast ship container cable_car subway aircraft wheelchair scooter drone" speed="5.68" length="9.23" shape="1064.81,1273.33 1067.08,1274.91 1068.92,1275.09 1070.32,1273.88 1071.28,1271.29"/>
    </edge>
    <edge id=":11064244011_1" function="internal">
        <lane id=":11064244011_1_0" index="0" disallow="tram rail_urban rail rail_electric rail_fast ship container cable_car subway aircraft wheelchair scooter drone" speed="3.65" length="1.44" shape="1064.81,1273.33 1065.16,1274.73"/>
    </edge>
    <edge id=":11064244011_4" function="internal">
        <lane id=":11064244011_4_0" index="0" disallow="tram rail_urban rail rail_electric rail_fast ship container cable_car subway aircraft wheelchair scooter drone" speed="3.65" length="3.23" shape="1065.16,1274.73 1064.91,1275.59 1064.08,1275.92 1062.65,1275.70"/>
    </edge>
    <edge id=":11064244011_2" function="internal">
        <lane id=":11064244011_2_0" index="0" disallow="tram rail_urban rail rail_electric rail_fast ship container cable_car subway aircraft wheelchair scooter drone" speed="9.49" length="12.33" shape="1067.92,1286.28 1067.99,1283.81 1067.14,1281.23 1065.36,1278.52 1062.65,1275.70"/>
    </edge>
    <edge id=":11064244011_3" function="internal">
        <lane id=":11064244011_3_0" index="0" disallow="tram rail_urban rail rail_electric rail_fast ship container cable_car subway aircraft wheelchair scooter drone" speed="13.89" length="15.36" shape="1067.92,1286.28 1071.28,1271.29"/>
    </edge>
    <edge id=":11082387600_0" function="internal">
        <lane id=":11082387600_0_0" index="0" disallow="tram rail_urban rail rail_electric rail_fast ship container cable_car subway aircraft wheelchair scooter drone" speed="27.78" length="9.40" shape="704.38,670.75 713.77,671.14"/>
        <lane id=":11082387600_0_1" index="1" disallow="tram rail_urban rail rail_electric rail_fast ship container cable_car subway aircraft wheelchair scooter drone" speed="27.78" length="9.40" shape="704.24,673.94 713.64,674.34"/>
        <lane id=":11082387600_0_2" index="2" disallow="tram rail_urban rail rail_electric rail_fast ship container cable_car subway aircraft wheelchair scooter drone" speed="27.78" length="9.40" shape="704.11,677.14 713.50,677.53"/>
    </edge>
    <edge id=":11082387600_3" function="internal">
        <lane id=":11082387600_3_0" index="0" disallow="tram rail_urban rail rail_electric rail_fast ship container cable_car subway aircraft wheelchair scooter drone" speed="6.10" length="7.76" shape="704.11,677.14 706.85,677.45 708.80,678.11 709.94,679.13 710.28,680.51"/>
    </edge>
    <edge id=":11082387600_4" function="internal">
        <lane id=":11082387600_4_0" index="0" disallow="tram rail_urban rail rail_electric rail_fast ship container cable_car subway aircraft wheelchair scooter drone" speed="6.86" length="10.19" shape="707.08,680.39 707.58,677.64 708.84,675.72 710.86,674.62 713.64,674.34"/>
        <lane id=":11082387600_4_1" index="1" disallow="tram rail_urban rail rail_electric rail_fast ship container cable_car subway aircraft wheelchair scooter drone" speed="6.08" length="7.77" shape="707.08,680.39 707.53,679.04 708.75,678.12 710.74,677.61 713.50,677.53"/>
    </edge>
    <edge id=":11082387600_6" function="internal">
        <lane id=":11082387600_6_0" index="0" disallow="tram rail_urban rail rail_electric rail_fast ship container cable_car subway aircraft wheelchair scooter drone" speed="3.65" length="4.67" shape="707.08,680.39 707.93,679.22 708.74,678.85 709.53,679.28 710.28,680.51"/>
    </edge>
    <edge id=":11082387601_0" function="internal">
        <lane id=":11082387601_0_0" index="0" disallow="tram rail_urban rail rail_electric rail_fast ship container cable_car subway aircraft wheelchair scooter drone" speed="13.89" length="14.46" shape="710.32,776.13 695.92,774.80"/>
    </edge>
    <edge id=":11082387601_1" function="internal">
        <lane id=":11082387601_1_0" index="0" disallow="tram rail_urban rail rail_electric rail_fast ship container cable_car subway aircraft wheelchair scooter drone" speed="8.10" length="4.06" shape="710.32,776.13 706.57,775.25 706.40,775.12"/>
    </edge>
    <edge id=":11082387601_2" function="internal">
        <lane id=":11082387601_2_0" index="0" disallow="tram rail_urban rail rail_electric rail_fast ship container cable_car subway aircraft wheelchair scooter drone" speed="3.65" length="1.44" shape="710.32,776.13 709.19,775.23"/>
    </edge>
    <edge id=":11082387601_9" function="internal">
        <lane id=":11082387601_9_0" index="0" disallow="tram rail_urban rail rail_electric rail_fast ship container cable_car subway aircraft wheelchair scooter drone" speed="8.10" length="10.21" shape="706.40,775.12 703.97,773.35 702.51,770.44 702.19,766.51"/>
    </edge>
    <edge id=":11082387601_10" function="internal">
        <lane id=":11082387601_10_0" index="0" disallow="tram rail_urban rail rail_electric rail_fast ship container cable_car subway aircraft wheelchair scooter drone" speed="3.65" length="3.23" shape="709.19,775.23 708.86,774.39 709.33,773.63 710.59,772.94"/>
    </edge>
    <edge id=":11082387601_3" function="internal">
        <lane id=":11082387601_3_0" index="0" disallow="tram rail_urban rail rail_electric rail_fast ship container cable_car subway aircraft wheelchair scooter drone" speed="6.63" length="9.21" shape="705.39,766.70 705.59,769.25 706.52,771.14 708.19,772.37 710.59,772.94"/>
    </edge>
    <edge id=":11082387601_4" function="internal">
        <lane id=":11082387601_4_0" index="0" disallow="tram rail_urban rail rail_electric rail_fast ship container cable_car subway aircraft wheelchair scooter drone" speed="7.93" length="14.35" shape="705.39,766.70 704.60,770.57 702.76,773.21 699.87,774.62 695.92,774.80"/>
    </edge>
    <edge id=":11082387601_5" function="internal">
        <lane id=":11082387601_5_0" index="0" disallow="tram rail_urban rail rail_electric rail_fast ship container cable_car subway aircraft wheelchair scooter drone" speed="3.65" length="4.67" shape="705.39,766.70 704.52,767.85 703.70,768.20 702.92,767.76 702.19,766.51"/>
    </edge>
    <edge id=":11082387601_6" function="internal">
        <lane id=":11082387601_6_0" index="0" disallow="tram rail_urban rail rail_electric rail_fast ship container cable_car subway aircraft wheelchair scooter drone" speed="6.42" length="9.04" shape="696.23,771.61 698.72,771.50 700.54,770.62 701.70,768.95 702.19,766.51"/>
    </edge>
    <edge id=":11082387601_7" function="internal">
        <lane id=":11082387601_7_0" index="0" disallow="tram rail_urban rail rail_electric rail_fast ship container cable_car subway aircraft wheelchair scooter drone" speed="13.89" length="14.42" shape="696.23,771.61 710.59,772.94"/>
    </edge>
    <edge id=":11082387601_8" function="internal">
        <lane id=":11082387601_8_0" index="0" disallow="tram rail_urban rail rail_electric rail_fast ship container cable_car subway aircraft wheelchair scooter drone" speed="3.65" length="1.44" shape="696.23,771.61 697.35,772.53"/>
    </edge>
    <edge id=":11082387601_11" function="internal">
        <lane id=":11082387601_11_0" index="0" disallow="tram rail_urban rail rail_electric rail_fast ship container cable_car subway aircraft wheelchair scooter drone" speed="3.65" length="3.23" shape="697.35,772.53 697.67,773.36 697.19,774.12 695.92,774.80"/>
    </edge>
    <edge id=":11786937750_0" function="internal">
        <lane id=":11786937750_0_0" index="0" disallow="tram rail_urban rail rail_electric rail_fast ship container cable_car subway aircraft wheelchair scooter drone" speed="27.78" length="9.41" shape="1049.41,447.91 1040.29,445.59"/>
        <lane id=":11786937750_0_1" index="1" disallow="tram rail_urban rail rail_electric rail_fast ship container cable_car subway aircraft wheelchair scooter drone" speed="27.78" length="9.41" shape="1050.20,444.81 1041.08,442.49"/>
    </edge>
    <edge id=":11786937750_2" function="internal">
        <lane id=":11786937750_2_0" index="0" disallow="tram rail_urban rail rail_electric rail_fast ship container cable_car subway aircraft wheelchair scooter drone" speed="6.03" length="7.88" shape="1050.20,444.81 1047.55,443.93 1045.80,442.85 1044.94,441.56 1044.97,440.08"/>
    </edge>
    <edge id=":11786937750_3" function="internal">
        <lane id=":11786937750_3_0" index="0" disallow="tram rail_urban rail rail_electric rail_fast ship container cable_car subway aircraft wheelchair scooter drone" speed="6.19" length="7.82" shape="1048.04,441.00 1047.26,442.23 1045.84,442.89 1043.78,442.97 1041.08,442.49"/>
    </edge>
    <edge id=":11786937750_4" function="internal">
        <lane id=":11786937750_4_0" index="0" disallow="tram rail_urban rail rail_electric rail_fast ship container cable_car subway aircraft wheelchair scooter drone" speed="3.65" length="4.67" shape="1048.04,441.00 1046.93,441.92 1046.04,442.07 1045.39,441.46 1044.97,440.08"/>
    </edge>
    <edge id=":11786937751_0" function="internal">
        <lane id=":11786937751_0_0" index="0" disallow="tram rail_urban rail rail_electric rail_fast ship container cable_car subway aircraft wheelchair scooter drone" speed="3.65" length="4.67" shape="1054.24,409.17 1055.35,408.25 1056.23,408.10 1056.88,408.71 1057.30,410.09"/>
    </edge>
    <edge id=":11792692249_0" function="internal">
        <lane id=":11792692249_0_0" index="0" disallow="tram rail_urban rail rail_electric rail_fast ship container cable_car subway aircraft wheelchair scooter drone" speed="3.65" length="4.67" shape="2263.68,568.60 2263.00,567.33 2263.03,566.44 2263.76,565.92 2265.20,565.78"/>
    </edge>
    <edge id=":12042036967_0" function="internal">
        <lane id=":12042036967_0_0" index="0" disallow="tram rail_urban rail rail_electric rail_fast ship container cable_car subway aircraft wheelchair scooter drone" speed="3.65" length="4.67" shape="118.28,348.14 117.13,349.01 116.24,349.12 115.62,348.48 115.26,347.08"/>
    </edge>
    <edge id=":1462970191_0" function="internal">
        <lane id=":1462970191_0_0" index="0" disallow="tram rail_urban rail rail_electric rail_fast ship container cable_car subway aircraft wheelchair scooter drone" speed="6.43" length="9.03" shape="283.20,744.55 281.11,743.19 279.11,742.85 277.20,743.51 275.36,745.19"/>
    </edge>
    <edge id=":1462970191_1" function="internal">
        <lane id=":1462970191_1_0" index="0" disallow="tram rail_urban rail rail_electric rail_fast ship container cable_car subway aircraft wheelchair scooter drone" speed="8.10" length="14.25" shape="283.20,744.55 280.63,741.58 279.58,738.50 280.06,735.32 282.05,732.03"/>
    </edge>
    <edge id=":1462970191_2" function="internal">
        <lane id=":1462970191_2_0" index="0" disallow="tram rail_urban rail rail_electric rail_fast ship container cable_car subway aircraft wheelchair scooter drone" speed="3.65" length="4.67" shape="283.20,744.55 282.82,743.16 283.05,742.29 283.88,741.96 285.31,742.15"/>
    </edge>
    <edge id=":1462970191_3" function="internal">
        <lane id=":1462970191_3_0" index="0" disallow="tram rail_urban rail rail_electric rail_fast ship container cable_car subway aircraft wheelchair scooter drone" speed="6.63" length="9.19" shape="284.52,734.07 283.24,736.18 282.95,738.23 283.64,740.22 285.31,742.15"/>
    </edge>
    <edge id=":1462970191_4" function="internal">
        <lane id=":1462970191_4_0" index="0" disallow="tram rail_urban rail rail_electric rail_fast ship container cable_car subway aircraft wheelchair scooter drone" speed="13.89" length="14.41" shape="284.52,734.07 275.36,745.19"/>
    </edge>
    <edge id=":1462970191_5" function="internal">
        <lane id=":1462970191_5_0" index="0" disallow="tram rail_urban rail rail_electric rail_fast ship container cable_car subway aircraft wheelchair scooter drone" speed="3.65" length="1.44" shape="284.52,734.07 283.14,734.48"/>
    </edge>
    <edge id=":1462970191_9" function="internal">
        <lane id=":1462970191_9_0" index="0" disallow="tram rail_urban rail rail_electric rail_fast ship container cable_car subway aircraft wheelchair scooter drone" speed="3.65" length="3.23" shape="283.14,734.48 282.27,734.28 281.91,733.46 282.05,732.03"/>
    </edge>
    <edge id=":1462970191_6" function="internal">
        <lane id=":1462970191_6_0" index="0" disallow="tram rail_urban rail rail_electric rail_fast ship container cable_car subway aircraft wheelchair scooter drone" speed="13.89" length="14.42" shape="272.89,743.17 282.05,732.03"/>
    </edge>
    <edge id=":1462970191_7" function="internal">
        <lane id=":1462970191_7_0" index="0" disallow="tram rail_urban rail rail_electric rail_fast ship container cable_car subway aircraft wheelchair scooter drone" speed="7.94" length="4.11" shape="272.89,743.17 275.79,740.50 275.95,740.45"/>
    </edge>
    <edge id=":1462970191_8" function="internal">
        <lane id=":1462970191_8_0" index="0" disallow="tram rail_urban rail rail_electric rail_fast ship container cable_car subway aircraft wheelchair scooter drone" speed="3.65" length="1.44" shape="272.89,743.17 274.27,742.74"/>
    </edge>
    <edge id=":1462970191_10" function="internal">
        <lane id=":1462970191_10_0" index="0" disallow="tram rail_urban rail rail_electric rail_fast ship container cable_car subway aircraft wheelchair scooter drone" speed="7.94" length="10.21" shape="275.95,740.45 278.83,739.44 282.00,739.99 285.31,742.15"/>
    </edge>
    <edge id=":1462970191_11" function="internal">
        <lane id=":1462970191_11_0" index="0" disallow="tram rail_urban rail rail_electric rail_fast ship container cable_car subway aircraft wheelchair scooter drone" speed="3.65" length="3.23" shape="274.27,742.74 275.14,742.94 275.50,743.76 275.36,745.19"/>
    </edge>
    <edge id=":1462970196_0" function="internal">
        <lane id=":1462970196_0_0" index="0" disallow="tram rail_urban rail rail_electric rail_fast ship container cable_car subway aircraft wheelchair scooter drone" speed="6.55" length="9.01" shape="230.97,799.35 229.69,801.46 229.37,803.48 230.03,805.42 231.65,807.26"/>
    </edge>
    <edge id=":1462970196_1" function="internal">
        <lane id=":1462970196_1_0" index="0" disallow="tram rail_urban rail rail_electric rail_fast ship container cable_car subway aircraft wheelchair scooter drone" speed="3.65" length="4.67" shape="230.97,799.35 229.59,799.77 228.72,799.57 228.35,798.76 228.50,797.32"/>
    </edge>
    <edge id=":1462970196_2" function="internal">
        <lane id=":1462970196_2_0" index="0" disallow="tram rail_urban rail rail_electric rail_fast ship container cable_car subway aircraft wheelchair scooter drone" speed="6.51" length="8.98" shape="220.65,798.13 222.76,799.39 224.77,799.67 226.68,798.98 228.50,797.32"/>
    </edge>
    <edge id=":1462970196_3" function="internal">
        <lane id=":1462970196_3_0" index="0" disallow="tram rail_urban rail rail_electric rail_fast ship container cable_car subway aircraft wheelchair scooter drone" speed="16.67" length="14.21" shape="220.65,798.13 231.65,807.26"/>
        <lane id=":1462970196_3_1" index="1" disallow="tram rail_urban rail rail_electric rail_fast ship container cable_car subway aircraft wheelchair scooter drone" speed="16.67" length="14.21" shape="218.64,800.62 229.57,809.69"/>
        <lane id=":1462970196_3_2" index="2" disallow="tram rail_urban rail rail_electric rail_fast ship container cable_car subway aircraft wheelchair scooter drone" speed="16.67" length="14.21" shape="216.63,803.11 227.49,812.13"/>
    </edge>
    <edge id=":1462970198_0" function="internal">
        <lane id=":1462970198_0_0" index="0" disallow="tram rail_urban rail rail_electric rail_fast ship container cable_car subway aircraft wheelchair scooter drone" speed="3.65" length="4.67" shape="1001.59,869.55 1002.80,868.77 1003.69,868.72 1004.26,869.41 1004.52,870.83"/>
    </edge>
    <edge id=":1462970200_0" function="internal">
        <lane id=":1462970200_0_0" index="0" disallow="tram rail_urban rail rail_electric rail_fast ship container cable_car subway aircraft wheelchair scooter drone" speed="7.07" length="9.77" shape="972.20,945.42 971.39,948.12 971.48,950.44 972.46,952.39 974.34,953.97"/>
    </edge>
    <edge id=":1462970200_1" function="internal">
        <lane id=":1462970200_1_0" index="0" disallow="tram rail_urban rail rail_electric rail_fast ship container cable_car subway aircraft wheelchair scooter drone" speed="3.65" length="4.67" shape="972.20,945.42 970.99,946.20 970.10,946.25 969.52,945.57 969.26,944.15"/>
    </edge>
    <edge id=":1462970200_2" function="internal">
        <lane id=":1462970200_2_0" index="0" disallow="tram rail_urban rail rail_electric rail_fast ship container cable_car subway aircraft wheelchair scooter drone" speed="6.22" length="9.05" shape="961.96,946.44 964.28,947.45 966.27,947.40 967.93,946.30 969.26,944.15"/>
    </edge>
    <edge id=":1462970200_3" function="internal">
        <lane id=":1462970200_3_0" index="0" disallow="tram rail_urban rail rail_electric rail_fast ship container cable_car subway aircraft wheelchair scooter drone" speed="27.78" length="14.51" shape="961.96,946.44 974.34,953.97"/>
        <lane id=":1462970200_3_1" index="1" disallow="tram rail_urban rail rail_electric rail_fast ship container cable_car subway aircraft wheelchair scooter drone" speed="27.78" length="14.51" shape="960.28,949.17 972.69,956.71"/>
    </edge>
    <edge id=":1462970230_0" function="internal">
        <lane id=":1462970230_0_0" index="0" disallow="tram rail_urban rail rail_electric rail_fast ship container cable_car subway aircraft wheelchair scooter drone" speed="6.40" length="9.04" shape="1059.54,1297.68 1062.02,1298.00 1063.96,1297.43 1065.38,1295.98 1066.26,1293.65"/>
    </edge>
    <edge id=":1462970230_1" function="internal">
        <lane id=":1462970230_1_0" index="0" disallow="tram rail_urban rail rail_electric rail_fast ship container cable_car subway aircraft wheelchair scooter drone" speed="3.65" length="1.44" shape="1059.54,1297.68 1060.49,1298.77"/>
    </edge>
    <edge id=":1462970230_4" function="internal">
        <lane id=":1462970230_4_0" index="0" disallow="tram rail_urban rail rail_electric rail_fast ship container cable_car subway aircraft wheelchair scooter drone" speed="3.65" length="3.23" shape="1060.49,1298.77 1060.66,1299.65 1060.06,1300.31 1058.69,1300.76"/>
    </edge>
    <edge id=":1462970230_2" function="internal">
        <lane id=":1462970230_2_0" index="0" disallow="tram rail_urban rail rail_electric rail_fast ship container cable_car subway aircraft wheelchair scooter drone" speed="6.59" length="9.20" shape="1062.84,1307.70 1063.12,1305.25 1062.51,1303.27 1061.04,1301.78 1058.69,1300.76"/>
    </edge>